
##########################################################################
#               Crystallographic Information Format file
#               Produced by PyCifRW module
#
#  This is a CIF file.  CIF has been adopted by the International
#  Union of Crystallography as the standard for data archiving and
#  transmission.
#
#  For information on this file format, follow the CIF links at
#  http://www.iucr.org
##########################################################################

data_image0

_cell_length_a                          27.464
_cell_length_b                          22.9146
_cell_length_c                          8.36245
_cell_angle_alpha                       90.5793
_cell_angle_beta                        90.4016
_cell_angle_gamma                       90.0621
_symmetry_space_group_name_H-M          'P 1'
_space_group_name_Hall                  'P 1'
loop_
  _atom_site_type_symbol
  _atom_site_label
  _atom_site_fract_x
  _atom_site_fract_y
  _atom_site_fract_z
  _atom_site_charge
         C         C         0.73245   0.20293   0.03376   0.066828  
         C         C         0.26787   0.79609   0.05522   0.066129  
         C         C         0.27110   0.20133   0.96368   0.061662  
         C         C         0.72837   0.79982   0.98971   0.058392  
         N         N         0.73219   0.24879   0.94473   -0.299502           
         N         N         0.26785   0.74937   0.96701   -0.302232           
         N         N         0.26651   0.25200   0.03190   -0.301287           
         N         N         0.73482   0.74908   0.05377   -0.302383           
         C         C         0.69879   0.29426   0.96746   0.196617  
         C         C         0.36643   0.60739   0.00579   0.062048  
         C         C         0.30200   0.70471   0.98790   0.197530  
         C         C         0.63598   0.39285   0.99115   0.061303  
         C         C         0.30139   0.29621   0.01836   0.196412  
         C         C         0.63601   0.60673   0.02418   0.061365  
         C         C         0.69994   0.70466   0.04175   0.196105  
         C         C         0.36589   0.39394   0.01064   0.062553  
         C         C         0.70860   0.34582   0.88349   -0.146823           
         C         C         0.37614   0.65987   0.09048   -0.124702           
         C         C         0.29171   0.65222   0.90573   -0.146830           
         C         C         0.62682   0.34136   0.07751   -0.123151           
         C         C         0.29131   0.34790   0.10431   -0.143170           
         C         C         0.62726   0.65728   0.93333   -0.124736           
         C         C         0.70906   0.65405   0.13140   -0.147467           
         C         C         0.37528   0.34255   0.92119   -0.126227           
         C         C         0.67784   0.39372   0.89463   -0.127021           
         C         C         0.34511   0.70770   0.08035   -0.170949           
         C         C         0.32320   0.60506   0.91385   -0.126920           
         C         C         0.65711   0.29295   0.06493   -0.172556           
         C         C         0.32285   0.39518   0.10152   -0.129603           
         C         C         0.65809   0.70530   0.94302   -0.172840           
         C         C         0.67760   0.60657   0.12375   -0.128485           
         C         C         0.34425   0.29457   0.92618   -0.171169           
         H         H         0.70678   0.19623   0.13229   0.064548  
         H         H         0.29407   0.80394   0.15315   0.065052  
         H         H         0.30310   0.18859   0.89305   0.063529  
         H         H         0.69451   0.81265   0.92844   0.063473  
         H         H         0.74027   0.34643   0.80615   0.121525  
         H         H         0.40714   0.66240   0.17183   0.107052  
         H         H         0.25898   0.65048   0.83178   0.122316  
         H         H         0.59689   0.34021   0.16181   0.105746  
         H         H         0.25860   0.34892   0.17675   0.120722  
         H         H         0.59761   0.65753   0.84660   0.106878  
         H         H         0.74099   0.65337   0.20893   0.120507  
         H         H         0.40609   0.34126   0.84037   0.108132  
         H         H         0.68503   0.43189   0.82214   0.108564  
         H         H         0.35378   0.74695   0.14916   0.108716  
         H         H         0.31533   0.56622   0.84239   0.109497  
         H         H         0.64900   0.25460   0.13558   0.109345  
         H         H         0.31518   0.43319   0.17599   0.107875  
         H         H         0.65096   0.74224   0.86586   0.108536  
         H         H         0.68440   0.56890   0.19874   0.106553  
         H         H         0.35253   0.25673   0.85167   0.108712  
         S         S         0.94067   0.93541   0.98970   0.078280  
         S         S         0.06022   0.06380   0.98177   0.085979  
         S         S         0.06001   0.93565   0.99064   0.092661  
         S         S         0.94084   0.06349   0.97284   0.100130  
         C         C         0.97560   -0.00039  0.98578   -0.119586           
         C         C         0.02520   -0.00024  0.98811   -0.117764           
         C         C         0.88298   0.96990   0.99564   -0.060103           
         C         C         0.11785   0.02974   0.99413   -0.053760           
         C         C         0.11761   0.96973   0.99357   -0.054594           
         C         C         0.88341   0.02979   0.98643   -0.050215           
         C         C         0.84188   0.92911   -0.00081  0.077611  
         C         C         0.15871   0.07114   0.99337   0.078945  
         C         C         0.15819   0.92800   0.00120   0.079254  
         C         C         0.84280   0.07149   0.99127   0.077390  
         C         C         0.84858   0.87367   0.06946   -0.135689           
         C         C         0.15300   0.12691   0.06538   -0.134779           
         C         C         0.15436   0.87385   0.91937   -0.132861           
         C         C         0.84554   0.12349   0.90217   -0.134219           
         C         C         0.81212   0.83190   0.06656   -0.093450           
         C         C         0.18927   0.16888   0.05776   -0.095245           
         C         C         0.19035   0.83178   0.93291   -0.098883           
         C         C         0.80938   0.16554   0.91221   -0.093821           
         C         C         0.76670   0.84367   0.99465   0.048451  
         C         C         0.23307   0.15732   0.97651   0.052014  
         C         C         0.23137   0.84139   0.03168   0.051008  
         C         C         0.76910   0.15760   0.01308   0.050671  
         C         C         0.75954   0.89899   0.92585   -0.129056           
         C         C         0.23916   0.10168   0.90614   -0.129394           
         C         C         0.23564   0.89552   0.11170   -0.126990           
         C         C         0.76595   0.10558   0.10069   -0.127747           
         C         C         0.79635   0.94068   0.92678   -0.128387           
         C         C         0.20296   0.05945   0.91505   -0.129155           
         C         C         0.19998   0.93809   0.09586   -0.127748           
         C         C         0.80209   0.06339   0.08985   -0.125829           
         H         H         0.88289   0.86425   0.12977   0.108188  
         H         H         0.11964   0.13654   0.13001   0.107142  
         H         H         0.12294   0.86557   0.84234   0.107993  
         H         H         0.87626   0.13011   0.82279   0.106298  
         H         H         0.81753   0.78950   0.12113   0.116356  
         H         H         0.18465   0.21145   0.11419   0.117263  
         H         H         0.18762   0.79065   0.86759   0.117231  
         H         H         0.81158   0.20545   0.84334   0.115562  
         H         H         0.72503   0.90842   0.86653   0.105255  
         H         H         0.27231   0.09216   0.84021   0.104066  
         H         H         0.26672   0.90338   0.19064   0.104769  
         H         H         0.73550   0.09914   0.18138   0.106740  
         H         H         0.79059   0.98225   0.86845   0.106600  
         H         H         0.20842   0.01708   0.85903   0.103848  
         H         H         0.20353   0.97931   0.15973   0.102538  
         H         H         0.79958   0.02407   0.16040   0.101137  
         C         C         0.60546   0.44595   0.00122   0.024772  
         C         C         0.55354   0.44562   0.00232   0.034065  
         C         C         0.52665   0.60718   0.01594   -0.130318           
         H         H         0.54611   0.64831   0.02387   0.103193  
         C         C         0.39739   0.55459   0.01108   0.023427  
         C         C         0.44928   0.55481   0.00966   0.037131  
         C         C         0.47623   0.39319   0.00796   -0.133778           
         H         H         0.45706   0.35192   0.01419   0.103358  
         C         C         0.39699   0.44665   0.00854   0.023760  
         C         C         0.44887   0.44602   0.00821   0.036569  
         C         C         0.47696   0.60744   0.00810   -0.133576           
         H         H         0.45801   0.64882   0.00203   0.103550  
         C         C         0.60560   0.55360   0.01276   0.026572  
         C         C         0.55377   0.55421   0.01172   0.034059  
         C         C         0.52588   0.39294   -0.00124  -0.131585           
         H         H         0.54475   0.35149   0.98931   0.103429  
         C         C         0.62954   0.49982   0.00655   -0.188505           
         C         C         0.52751   0.50001   0.00698   0.004458  
         H         H         0.66915   0.50011   0.00608   0.105139  
         C         C         0.37343   0.50071   0.01083   -0.187279           
         C         C         0.47513   0.50028   0.00816   0.003299  
         H         H         0.33388   0.50077   0.01095   0.102548  
         C         C         0.72713   0.20321   0.52572   0.058875  
         C         C         0.26643   0.79555   0.54390   0.058764  
         C         C         0.27240   0.19766   0.46429   0.061626  
         C         C         0.73320   0.79683   0.47071   0.069088  
         N         N         0.73161   0.25280   0.45396   -0.306345           
         N         N         0.26323   0.74667   0.46530   -0.302185           
         N         N         0.26793   0.24829   0.53235   -0.298477           
         N         N         0.73193   0.75243   0.56492   -0.297375           
         C         C         0.69768   0.29798   0.47001   0.196018  
         C         C         0.36272   0.60520   0.48978   0.062677  
         C         C         0.29769   0.70204   0.48095   0.195282  
         C         C         0.63480   0.39680   0.48176   0.061677  
         C         C         0.30226   0.29291   0.51570   0.197852  
         C         C         0.63356   0.60999   0.51413   0.060718  
         C         C         0.69776   0.70753   0.54229   0.197193  
         C         C         0.36550   0.39148   0.49857   0.061862  
         C         C         0.70843   0.34914   0.38516   -0.144802           
         C         C         0.37054   0.65522   0.58667   -0.125325           
         C         C         0.28910   0.65160   0.38721   -0.145175           
         C         C         0.62497   0.34621   0.57106   -0.126080           
         C         C         0.29276   0.34436   0.60328   -0.144944           
         C         C         0.62377   0.66281   0.43474   -0.124694           
         C         C         0.70776   0.65494   0.62142   -0.146127           
         C         C         0.37431   0.34013   0.40831   -0.122915           
         C         C         0.67773   0.39719   0.39064   -0.128576           
         C         C         0.33910   0.70271   0.58185   -0.170629           
         C         C         0.32094   0.60461   0.39095   -0.129752           
         C         C         0.65532   0.29773   0.56466   -0.169311           
         C         C         0.32384   0.39207   0.59624   -0.127099           
         C         C         0.65464   0.71077   0.45024   -0.172773           
         C         C         0.67639   0.60758   0.60796   -0.129294           
         C         C         0.34384   0.29178   0.41762   -0.174231           
         H         H         0.69596   0.19202   0.60142   0.065759  
         H         H         0.29636   0.80614   0.62743   0.066686  
         H         H         0.30393   0.18498   0.39126   0.063931  
         H         H         0.70821   0.80196   0.36841   0.063420  
         H         H         0.74097   0.34931   0.31181   0.120253  
         H         H         0.40024   0.65553   0.67335   0.107057  
         H         H         0.25734   0.65108   0.30885   0.119934  
         H         H         0.59456   0.34631   0.65364   0.107860  
         H         H         0.26087   0.34506   0.67961   0.121029  
         H         H         0.59291   0.66542   0.35303   0.107438  
         H         H         0.74002   0.65297   0.69734   0.122365  
         H         H         0.40371   0.33930   0.32199   0.104391  
         H         H         0.68596   0.43509   0.31838   0.107149  
         H         H         0.34576   0.73929   0.66296   0.109144  
         H         H         0.31456   0.56735   0.31189   0.107071  
         H         H         0.64704   0.26056   0.63966   0.109029  
         H         H         0.31669   0.43006   0.67145   0.108528  
         H         H         0.64571   0.75054   0.38649   0.108311  
         H         H         0.68412   0.56841   0.67600   0.111549  
         H         H         0.35113   0.25409   0.34147   0.108477  
         S         S         0.93921   0.93898   0.50719   0.100037  
         S         S         0.06002   0.06499   0.48485   0.091267  
         S         S         0.05738   0.93676   0.49445   0.087125  
         S         S         0.93946   0.06673   0.47843   0.078310  
         C         C         0.97422   0.00280   0.49520   -0.119917           
         C         C         0.02381   0.00198   0.49356   -0.117724           
         C         C         0.88205   0.97333   0.51147   -0.048649           
         C         C         0.11690   0.02934   0.49807   -0.054695           
         C         C         0.11561   0.96935   0.49742   -0.055054           
         C         C         0.88161   0.03316   0.49791   -0.062758           
         C         C         0.84156   0.93124   0.51318   0.077025  
         C         C         0.15860   0.06965   0.49736   0.080802  
         C         C         0.15575   0.92708   0.50249   0.078923  
         C         C         0.84063   0.07407   0.49972   0.078694  
         C         C         0.84522   0.87983   0.60454   -0.133368           
         C         C         0.15439   0.12493   0.57303   -0.135123           
         C         C         0.15107   0.87269   0.42196   -0.135380           
         C         C         0.84643   0.13022   0.43265   -0.136756           
         C         C         0.80979   0.83665   0.59419   -0.094443           
         C         C         0.19137   0.16596   0.56487   -0.095267           
         C         C         0.18704   0.83047   0.43317   -0.095954           
         C         C         0.80969   0.17153   0.43855   -0.094630           
         C         C         0.76946   0.84289   0.49085   0.052477  
         C         C         0.23432   0.15383   0.47980   0.052743  
         C         C         0.22930   0.84045   0.52597   0.049461  
         C         C         0.76503   0.15905   0.51277   0.049838  
         C         C         0.76558   0.89422   0.40041   -0.125884           
         C         C         0.23920   0.09842   0.40737   -0.129405           
         C         C         0.23454   0.89499   0.60359   -0.127342           
         C         C         0.75876   0.10314   0.57860   -0.130922           
         C         C         0.80086   0.93753   0.41178   -0.125117           
         C         C         0.20214   0.05726   0.41584   -0.130027           
         C         C         0.19850   0.93727   0.59238   -0.128632           
         C         C         0.79561   0.06164   0.57243   -0.129908           
         H         H         0.87605   0.87443   0.68556   0.104056  
         H         H         0.12167   0.13505   0.64046   0.107017  
         H         H         0.11906   0.86436   0.34765   0.108251  
         H         H         0.88038   0.14101   0.37329   0.109843  
         H         H         0.81268   0.79707   0.66430   0.116630  
         H         H         0.18814   0.20822   0.62413   0.116155  
         H         H         0.18371   0.78895   0.36985   0.115435  
         H         H         0.81458   0.21449   0.38684   0.115992  
         H         H         0.73527   0.89937   0.31718   0.104482  
         H         H         0.27217   0.08810   0.34128   0.104229  
         H         H         0.26661   0.90350   0.67760   0.105269  
         H         H         0.72486   0.09283   0.63896   0.104897  
         H         H         0.79795   0.97622   0.33869   0.102900  
         H         H         0.20637   0.01510   0.35758   0.102719  
         H         H         0.20243   0.97844   0.65629   0.102214  
         H         H         0.79020   0.01942   0.62724   0.105145  
         C         C         0.60383   0.44942   0.48646   0.027500  
         C         C         0.55200   0.44814   0.48359   0.032381  
         C         C         0.52263   0.60877   0.50829   -0.131654           
         H         H         0.54113   0.65039   0.52116   0.102919  
         C         C         0.39419   0.55287   0.49327   0.026104  
         C         C         0.44607   0.55449   0.49518   0.034622  
         C         C         0.47570   0.39362   0.48214   -0.134339           
         H         H         0.45721   0.35184   0.48294   0.104116  
         C         C         0.39561   0.44503   0.49078   0.024780  
         C         C         0.44751   0.44579   0.48795   0.036594  
         C         C         0.47289   0.60781   0.50074   -0.133555           
         H         H         0.45310   0.64876   0.50103   0.103378  
         C         C         0.60286   0.55704   0.49989   0.025278  
         C         C         0.55088   0.55666   0.49928   0.034520  
         C         C         0.52532   0.39485   0.47380   -0.129482           
         H         H         0.54518   0.35422   0.46071   0.103144  
         C         C         0.62725   0.50354   0.49258   -0.188974           
         C         C         0.52529   0.50191   0.49075   0.005005  
         H         H         0.66683   0.50402   0.49385   0.103779  
         C         C         0.37101   0.49847   0.49133   -0.189104           
         C         C         0.47289   0.50073   0.49081   0.003441  
         H         H         0.33142   0.49783   0.49096   0.105099 

