
##########################################################################
#               Crystallographic Information Format file
#               Produced by PyCifRW module
#
#  This is a CIF file.  CIF has been adopted by the International
#  Union of Crystallography as the standard for data archiving and
#  transmission.
#
#  For information on this file format, follow the CIF links at
#  http://www.iucr.org
##########################################################################

data_image0

_cell_length_a                          13.8643
_cell_length_b                          13.9594
_cell_length_c                          7.7894
_cell_angle_alpha                       87.4937
_cell_angle_beta                        93.2868
_cell_angle_gamma                       120.082
_symmetry_space_group_name_H-M          'P 1'
_space_group_name_Hall                  'P 1'
loop_
  _atom_site_type_symbol
  _atom_site_label
  _atom_site_fract_x
  _atom_site_fract_y
  _atom_site_fract_z
  _atom_site_charge
         C         C         0.10200   0.04557   0.91777   0.488362  
         N         N         0.05914   0.11347   0.91753   -0.534384           
         N         N         0.21611   0.09463   0.94271   -0.131185           
         C         C         0.27607   0.20978   0.00348   -0.086543           
         C         C         0.37330   0.22773   0.12395   -0.078032           
         N         N         0.44347   0.19126   0.04989   -0.163135           
         C         C         0.38728   0.07502   0.99492   0.153746  
         C         C         0.26067   0.02385   0.00809   -0.118849           
         C         C         0.55582   0.26313   0.03413   0.483873  
         N         N         0.62192   0.21835   0.02733   -0.540308           
         H         H         0.30653   0.26716   0.89295   0.072405  
         H         H         0.21772   0.22563   0.06947   0.095053  
         H         H         0.34121   0.18205   0.24570   0.080106  
         H         H         0.42576   0.31572   0.15242   0.104349  
         C         C         0.42218   0.00060   0.09971   -0.441999           
         H         H         0.40605   0.07582   0.85931   0.058097  
         H         H         0.23777   0.00020   0.14265   0.080610  
         H         H         0.21922   0.94705   0.93592   0.088525  
         H         H         0.50374   0.01669   0.06203   0.127483  
         H         H         0.36061   0.91292   0.07905   0.132422  
         H         H         0.42763   0.01650   0.23766   0.131036  
         C         C         0.94683   0.06037   0.92064   0.485822  
         N         N         0.87819   0.94979   0.91498   -0.538685           
         N         N         0.89879   0.12454   0.94013   -0.131490           
         C         C         0.78044   0.06814   0.98326   -0.082780           
         C         C         0.76296   0.13814   0.10713   -0.086916           
         N         N         0.80365   0.25105   0.04219   -0.161088           
         C         C         0.92056   0.31228   0.98919   0.155747  
         C         C         0.97016   0.23554   0.01077   -0.120396           
         C         C         0.73241   0.29294   0.02796   0.483768  
         N         N         0.77753   0.40381   0.02319   -0.539453           
         H         H         0.72785   0.05482   0.86573   0.075390  
         H         H         0.75778   0.98697   0.04180   0.094805  
         H         H         0.80722   0.14098   0.23033   0.080917  
         H         H         0.67426   0.10227   0.12995   0.102943  
         C         C         -0.00217  0.41827   0.09011   -0.438219           
         H         H         0.91911   0.33426   0.85184   0.057323  
         H         H         0.99041   0.22816   0.14791   0.082971  
         H         H         0.04916   0.27416   0.94598   0.090343  
         H         H         0.98561   0.48656   0.04351   0.126494  
         H         H         0.08551   0.44211   0.07553   0.132836  
         H         H         0.98113   0.40555   0.22774   0.133146  
         C         C         0.93123   0.89105   0.91015   0.489702  
         N         N         0.04267   0.93414   0.90569   -0.537350           
         N         N         0.86493   0.77725   0.91992   -0.134761           
         C         C         0.91902   0.70957   0.94160   -0.086153           
         C         C         0.86469   0.62346   0.08298   -0.084171           
         N         N         0.74580   0.55123   0.04385   -0.162649           
         C         C         0.68133   0.60758   -0.00209  0.155952  
         C         C         0.75894   0.73369   0.00700   -0.121627           
         C         C         0.70282   0.43890   0.03048   0.481681  
         N         N         0.59095   0.37276   0.03267   -0.540642           
         H         H         0.91052   0.66747   0.82105   0.077136  
         H         H         0.00796   0.76476   0.97248   0.097353  
         H         H         0.87550   0.66505   0.20517   0.081540  
         H         H         0.90275   0.57130   0.09870   0.102338  
         C         C         0.58491   0.57628   0.11683   -0.441217           
         H         H         0.64750   0.58540   0.86505   0.057846  
         H         H         0.77711   0.75832   0.14284   0.082198  
         H         H         0.71402   0.77377   0.95015   0.091078  
         H         H         0.51898   0.49091   0.09515   0.127457  
         H         H         0.55041   0.63162   0.09363   0.134463  
         H         H         0.61455   0.58311   0.25189   0.132275  
         C         C         0.89508   0.95972   0.41929   0.488412  
         N         N         0.93798   0.89209   0.41137   -0.539981           
         N         N         0.78148   0.91070   0.43360   -0.127219           
         C         C         0.71656   0.79049   0.46522   -0.085599           
         C         C         0.62981   0.76499   0.59614   -0.086055           
         N         N         0.55523   0.80744   0.54241   -0.165156           
         C         C         0.60968   0.92404   0.48037   0.159206  
         C         C         0.73689   0.97581   0.50405   -0.122712           
         C         C         0.44166   0.73616   0.53660   0.483705  
         N         N         0.37407   0.77992   0.53569   -0.536239           
         H         H         0.67588   0.74816   0.34455   0.074756  
         H         H         0.77384   0.76184   0.51335   0.096974  
         H         H         0.67229   0.80183   0.71952   0.081535  
         H         H         0.57800   0.67553   0.61487   0.100708  
         C         C         0.57643   -0.00233  0.57260   -0.439973           
         H         H         0.58814   0.92392   0.34191   0.056012  
         H         H         0.76118   0.98999   0.64180   0.084135  
         H         H         0.77620   0.05720   0.44076   0.088487  
         H         H         0.49304   0.98038   0.52882   0.127016  
         H         H         0.63652   0.08540   0.54769   0.133452  
         H         H         0.57551   0.98206   0.71198   0.131741  
         C         C         0.05059   0.94477   0.41611   0.487533  
         N         N         0.11936   0.05548   0.41905   -0.540731           
         N         N         0.09793   0.87800   0.42658   -0.132801           
         C         C         0.21821   0.92745   0.46809   -0.087793           
         C         C         0.23731   0.86018   0.61045   -0.082867           
         N         N         0.19238   0.74490   0.56238   -0.173476           
         C         C         0.07713   0.68847   0.48576   0.156827  
         C         C         0.02751   0.76474   0.49348   -0.119136           
         C         C         0.26436   0.70459   0.54633   0.483173  
         N         N         0.22005   0.59370   0.55014   -0.537931           
         H         H         0.26169   0.92851   0.35389   0.074060  
         H         H         0.25067   0.01314   0.50706   0.098633  
         H         H         0.19685   0.86209   0.72681   0.080862  
         H         H         0.32662   0.89530   0.64062   0.104639  
         C         C         0.99666   0.57806   0.57379   -0.440891           
         H         H         0.08206   0.67308   0.34987   0.055914  
         H         H         0.00768   0.76870   0.62697   0.081276  
         H         H         0.94787   0.72718   0.42025   0.086505  
         H         H         0.01950   0.51537   0.55135   0.128545  
         H         H         0.91094   0.54863   0.52310   0.132493  
         H         H         -0.00106  0.58814   0.71320   0.130252  
         C         C         0.06608   0.11403   0.42575   0.486925  
         N         N         0.95449   0.07135   0.42147   -0.537554           
         N         N         0.13132   0.22690   0.44628   -0.134156           
         C         C         0.07513   0.28853   0.48777   -0.087248           
         C         C         0.14369   0.37357   0.62348   -0.084747           
         N         N         0.25696   0.44802   0.56909   -0.156994           
         C         C         0.32009   0.39515   0.51720   0.153493  
         C         C         0.24454   0.26844   0.52229   -0.116452           
         C         C         0.29594   0.55969   0.55013   0.480322  
         N         N         0.40702   0.62665   0.53883   -0.539070           
         H         H         0.06494   0.33037   0.37125   0.074276  
         H         H         0.99213   0.22928   0.53349   0.097642  
         H         H         0.14695   0.33115   0.74434   0.082999  
         H         H         0.10589   0.42399   0.64729   0.105204  
         C         C         0.42489   0.42357   0.63142   -0.440528           
         H         H         0.34486   0.42255   0.38420   0.058968  
         H         H         0.23861   0.23787   0.65618   0.080756  
         H         H         0.28495   0.23213   0.45399   0.089338  
         H         H         0.49041   0.50884   0.60733   0.125034  
         H         H         0.45653   0.36766   0.60598   0.135046  
         H         H         0.40617   0.41490   0.76813   0.130895 

