
##########################################################################
#               Crystallographic Information Format file
#               Produced by PyCifRW module
#
#  This is a CIF file.  CIF has been adopted by the International
#  Union of Crystallography as the standard for data archiving and
#  transmission.
#
#  For information on this file format, follow the CIF links at
#  http://www.iucr.org
##########################################################################

data_image0

_cell_length_a                          30.1213
_cell_length_b                          30.1644
_cell_length_c                          8.11275
_cell_angle_alpha                       106.962
_cell_angle_beta                        105.934
_cell_angle_gamma                       119.866
_symmetry_space_group_name_H-M          'P 1'
_space_group_name_Hall                  'P 1'
loop_
  _atom_site_type_symbol
  _atom_site_label
  _atom_site_fract_x
  _atom_site_fract_y
  _atom_site_fract_z
  _atom_site_charge
         B         B         0.10978   0.55342   0.25851   0.579718  
         B         B         0.44089   0.55752   0.23909   0.584879  
         B         B         0.43698   0.88876   0.26564   0.582196  
         B         B         0.88243   0.43809   0.24867   0.579057  
         B         B         0.55373   0.44409   0.24060   0.587458  
         B         B         0.54956   0.11326   0.25705   0.579432  
         O         O         0.60359   0.14297   0.25833   -0.343164           
         C         C         0.46455   0.02661   0.25173   -0.069293           
         C         C         0.61359   0.19240   0.25333   0.173176  
         C         C         0.66016   0.23623   0.25187   -0.229855           
         C         C         0.66151   0.28405   0.25286   0.032036  
         O         O         0.85450   0.46390   0.25998   -0.343323           
         C         C         0.96783   0.43983   0.24041   -0.053425           
         C         C         0.80402   0.42426   0.25861   0.179311  
         C         C         0.76032   0.42735   0.26175   -0.225542           
         C         C         0.71199   0.38029   0.25706   0.030461  
         O         O         0.53033   0.39097   0.24387   -0.340103           
         C         C         0.55140   0.52800   0.24151   -0.058517           
         C         C         0.57082   0.38111   0.24841   0.176000  
         C         C         0.56895   0.33504   0.25209   -0.232403           
         C         C         0.61597   0.33427   0.25485   0.030787  
         O         O         0.38348   0.85737   0.26612   -0.342144           
         C         C         0.52031   0.97545   0.26987   -0.070740           
         C         C         0.37562   0.80846   0.26964   0.172759  
         C         C         0.33017   0.76336   0.27130   -0.227200           
         C         C         0.33051   0.71608   0.26610   0.030616  
         O         O         0.13862   0.52877   0.24081   -0.340695           
         C         C         0.02416   0.55037   0.26601   -0.053419           
         C         C         0.18905   0.57043   0.24649   0.178930  
         C         C         0.23310   0.56874   0.23780   -0.224638           
         C         C         0.28128   0.61787   0.24885   0.031905  
         O         O         0.46374   0.61140   0.24103   -0.337868           
         C         C         0.44342   0.47379   0.23472   -0.058812           
         C         C         0.42306   0.62068   0.24221   0.171012  
         C         C         0.42437   0.66723   0.24674   -0.233333           
         C         C         0.37729   0.66704   0.24989   0.031941  
         O         O         0.14160   0.60936   0.27382   -0.341556           
         C         C         0.02197   0.46749   0.24614   -0.065959           
         C         C         0.19066   0.61893   0.26541   0.171685  
         C         C         0.23597   0.66678   0.27309   -0.224666           
         C         C         0.28226   0.66672   0.26316   0.026444  
         O         O         0.46169   0.85959   0.26762   -0.342766           
         C         C         0.43764   0.97335   0.25168   -0.057259           
         C         C         0.42237   0.80931   0.26770   0.173997  
         C         C         0.42404   0.76414   0.26045   -0.220836           
         C         C         0.37738   0.71609   0.25819   0.029208  
         O         O         0.38698   0.53354   0.23779   -0.338363           
         C         C         0.52492   0.55490   0.24209   -0.058823           
         C         C         0.37674   0.57357   0.23949   0.174471  
         C         C         0.33028   0.57139   0.24114   -0.230283           
         C         C         0.32976   0.61857   0.24553   0.026954  
         O         O         0.85017   0.38353   0.24167   -0.340745           
         C         C         0.97001   0.52263   0.25989   -0.069282           
         C         C         0.80174   0.37604   0.24957   0.170882  
         C         C         0.75643   0.33020   0.24884   -0.226961           
         C         C         0.71040   0.33180   0.25310   0.028959  
         O         O         0.52641   0.14368   0.25067   -0.340315           
         C         C         0.54710   0.02849   0.26905   -0.049939           
         C         C         0.56742   0.19329   0.25143   0.181570  
         C         C         0.56730   0.23890   0.25422   -0.226716           
         C         C         0.61501   0.28551   0.25514   0.025778  
         O         O         0.60759   0.46677   0.24207   -0.340566           
         C         C         0.46999   0.44699   0.23491   -0.059629           
         C         C         0.61761   0.42695   0.24834   0.172755  
         C         C         0.66402   0.42810   0.25175   -0.234810           
         C         C         0.66392   0.38120   0.25565   0.026615  
         C         C         0.94101   0.46699   0.24745   -0.214473           
         C         C         0.52438   0.47359   0.23801   -0.222678           
         C         C         0.51973   0.05503   0.26004   -0.217406           
         C         C         0.05101   0.52319   0.25869   -0.215303           
         C         C         0.47045   0.52824   0.23859   -0.224921           
         C         C         0.46514   0.94690   0.26141   -0.208752           
         H         H         0.44306   0.04681   0.24557   0.109207  
         H         H         0.69477   0.23369   0.25146   0.136398  
         H         H         0.94600   0.39714   0.23293   0.106319  
         H         H         0.76315   0.46489   0.26503   0.136521  
         H         H         0.59320   0.54887   0.24242   0.105089  
         H         H         0.53223   0.30067   0.25397   0.134179  
         H         H         0.54202   0.95550   0.27719   0.108356  
         H         H         0.29490   0.76435   0.27400   0.136636  
         H         H         0.04610   0.59322   0.27463   0.107503  
         H         H         0.23015   0.53034   0.22335   0.136589  
         H         H         0.40165   0.45286   0.23403   0.106607  
         H         H         0.46058   0.70257   0.24602   0.134050  
         H         H         0.04239   0.44618   0.24189   0.108129  
         H         H         0.23560   0.70344   0.28771   0.136387  
         H         H         0.39517   0.95199   0.24621   0.107191  
         H         H         0.46001   0.76555   0.25228   0.135888  
         H         H         0.54612   0.59670   0.24339   0.106430  
         H         H         0.29595   0.53474   0.24342   0.133419  
         H         H         0.94959   0.54393   0.26503   0.108521  
         H         H         0.75651   0.29393   0.24368   0.135542  
         H         H         0.58947   0.04982   0.27386   0.106817  
         H         H         0.53171   0.23891   0.25905   0.136345  
         H         H         0.44901   0.40542   0.23523   0.107840  
         H         H         0.69882   0.46355   0.24681   0.134618  
         B         B         0.10717   0.55129   0.75566   0.581477  
         B         B         0.43293   0.54318   0.73399   0.585521  
         B         B         0.44207   0.88035   0.76833   0.576171  
         B         B         0.87980   0.43516   0.74636   0.580522  
         B         B         0.54696   0.43071   0.74501   0.590366  
         B         B         0.55418   0.10423   0.75854   0.583068  
         O         O         0.60805   0.13561   0.76045   -0.342077           
         C         C         0.47107   0.01820   0.75691   -0.067332           
         C         C         0.61605   0.18444   0.75577   0.173098  
         C         C         0.66168   0.22921   0.75387   -0.228247           
         C         C         0.66089   0.27581   0.75317   0.031211  
         O         O         0.85032   0.45932   0.75788   -0.339519           
         C         C         0.96570   0.43845   0.73928   -0.055373           
         C         C         0.80039   0.41839   0.75607   0.177908  
         C         C         0.75583   0.41976   0.76007   -0.221613           
         C         C         0.70846   0.37176   0.75556   0.029195  
         O         O         0.52491   0.37793   0.75056   -0.340348           
         C         C         0.54317   0.51311   0.73937   -0.058383           
         C         C         0.56593   0.36889   0.75331   0.169191  
         C         C         0.56531   0.32326   0.75598   -0.231860           
         C         C         0.61269   0.32352   0.75616   0.030091  
         O         O         0.38835   0.85067   0.76889   -0.342900           
         C         C         0.52596   0.96605   0.76806   -0.069733           
         C         C         0.37844   0.80107   0.77230   0.175350  
         C         C         0.33178   0.75680   0.77205   -0.229945           
         C         C         0.33015   0.70848   0.76663   0.030340  
         O         O         0.13405   0.52458   0.73520   -0.341496           
         C         C         0.02107   0.54859   0.76189   -0.055571           
         C         C         0.18542   0.56533   0.74310   0.175807  
         C         C         0.22864   0.56189   0.73554   -0.224015           
         C         C         0.27795   0.61008   0.74756   0.028113  
         O         O         0.45772   0.59805   0.74239   -0.338909           
         C         C         0.43478   0.45879   0.72934   -0.059994           
         C         C         0.41797   0.60855   0.74428   0.174312  
         C         C         0.42127   0.65626   0.75265   -0.231047           
         C         C         0.37460   0.65719   0.75366   0.029362  
         O         O         0.14103   0.60755   0.77481   -0.342442           
         C         C         0.01970   0.46630   0.74415   -0.067505           
         C         C         0.18920   0.61506   0.76429   0.174007  
         C         C         0.23561   0.66212   0.77280   -0.228712           
         C         C         0.28087   0.65997   0.76254   0.029852  
         O         O         0.46539   0.85003   0.77334   -0.340711           
         C         C         0.44434   0.96519   0.75791   -0.050931           
         C         C         0.42458   0.80031   0.77262   0.180814  
         C         C         0.42476   0.75460   0.76776   -0.225122           
         C         C         0.37659   0.70715   0.76257   0.027716  
         O         O         0.37874   0.51993   0.73060   -0.339478           
         C         C         0.51629   0.53962   0.73602   -0.057580           
         C         C         0.37013   0.56132   0.73603   0.171616  
         C         C         0.32409   0.56039   0.73647   -0.232490           
         C         C         0.32562   0.60893   0.74488   0.027791  
         O         O         0.84888   0.38030   0.73866   -0.344073           
         C         C         0.96700   0.52070   0.75668   -0.067103           
         C         C         0.79981   0.37098   0.74637   0.173435  
         C         C         0.75534   0.32423   0.74538   -0.225746           
         C         C         0.70866   0.32421   0.75158   0.027377  
         O         O         0.52943   0.13328   0.75447   -0.343179           
         C         C         0.55277   0.01920   0.76772   -0.058508           
         C         C         0.56897   0.18344   0.75430   0.176187  
         C         C         0.56692   0.22804   0.75617   -0.220814           
         C         C         0.61349   0.27553   0.75628   0.028348  
         O         O         0.60075   0.45420   0.74552   -0.339480           
         C         C         0.46166   0.43227   0.73244   -0.056559           
         C         C         0.61171   0.41504   0.75111   0.175690  
         C         C         0.65827   0.41709   0.75126   -0.234570           
         C         C         0.65964   0.37097   0.75530   0.030526  
         C         C         0.93850   0.46525   0.74586   -0.214047           
         C         C         0.51653   0.45915   0.73868   -0.227510           
         C         C         0.52568   0.04607   0.76177   -0.212926           
         C         C         0.04834   0.52185   0.75563   -0.214378           
         C         C         0.46178   0.51311   0.73218   -0.222660           
         C         C         0.47137   0.93828   0.76371   -0.214103           
         H         H         0.44989   0.03872   0.75269   0.108004  
         H         H         0.69710   0.22810   0.75380   0.136301  
         H         H         0.94434   0.39590   0.73287   0.108140  
         H         H         0.75752   0.45687   0.76472   0.135253  
         H         H         0.58506   0.53403   0.74094   0.106212  
         H         H         0.52955   0.28874   0.76069   0.134731  
         H         H         0.54712   0.94550   0.77156   0.108621  
         H         H         0.29711   0.75916   0.77322   0.136690  
         H         H         0.04239   0.59116   0.76852   0.107722  
         H         H         0.22461   0.52310   0.72248   0.136028  
         H         H         0.39280   0.43786   0.72719   0.105500  
         H         H         0.45875   0.69170   0.75668   0.135149  
         H         H         0.04036   0.44525   0.73979   0.108052  
         H         H         0.23721   0.69993   0.78935   0.136133  
         H         H         0.40247   0.94436   0.75657   0.107400  
         H         H         0.46076   0.75520   0.76428   0.134985  
         H         H         0.53726   0.58101   0.73459   0.106933  
         H         H         0.28845   0.52366   0.73440   0.134778  
         H         H         0.94632   0.54173   0.76120   0.108158  
         H         H         0.75652   0.28841   0.73824   0.136292  
         H         H         0.59467   0.04012   0.76929   0.107528  
         H         H         0.53059   0.22661   0.76034   0.135919  
         H         H         0.44051   0.39069   0.73244   0.105818  
         H         H         0.69199   0.45280   0.74403   0.136087 

