
##########################################################################
#               Crystallographic Information Format file
#               Produced by PyCifRW module
#
#  This is a CIF file.  CIF has been adopted by the International
#  Union of Crystallography as the standard for data archiving and
#  transmission.
#
#  For information on this file format, follow the CIF links at
#  http://www.iucr.org
##########################################################################

data_image0

_cell_length_a                          22.5722
_cell_length_b                          22.6258
_cell_length_c                          8.03509
_cell_angle_alpha                       62.3584
_cell_angle_beta                        94.8504
_cell_angle_gamma                       120.007
_symmetry_space_group_name_H-M          'P 1'
_space_group_name_Hall                  'P 1'
loop_
  _atom_site_type_symbol
  _atom_site_label
  _atom_site_fract_x
  _atom_site_fract_y
  _atom_site_fract_z
  _atom_site_charge
         B         B         0.47609   0.95963   0.25193   0.579675  
         B         B         0.03931   0.51672   0.24112   0.587050  
         B         B         0.48495   0.52338   0.25154   0.586985  
         O         O         0.08195   0.48980   0.22647   -0.341273           
         C         C         0.92390   0.40923   0.22471   -0.047396           
         C         C         0.85260   0.37410   0.22622   -0.138934           
         C         C         0.27074   0.60463   0.23641   0.028754  
         C         C         0.14796   0.54250   0.23440   0.172614  
         C         C         0.20889   0.54314   0.22747   -0.228847           
         H         H         0.20884   0.49779   0.21305   0.134747  
         H         H         0.95184   0.38446   0.20558   0.105792  
         H         H         0.82718   0.32356   0.20435   0.101384  
         O         O         0.51425   0.59283   0.26144   -0.341027           
         C         C         0.59265   0.51045   0.28256   -0.038958           
         C         C         0.62614   0.47201   0.28938   -0.146339           
         C         C         0.39785   0.66736   0.24846   0.031366  
         C         C         0.46007   0.60592   0.25590   0.169679  
         C         C         0.46064   0.66651   0.25816   -0.233602           
         H         H         0.50823   0.71181   0.26887   0.135199  
         H         H         0.61985   0.56146   0.30287   0.106609  
         H         H         0.67885   0.49361   0.31742   0.104511  
         O         O         0.40463   0.91864   0.24888   -0.341436           
         C         C         0.47996   0.07323   0.26374   -0.049927           
         C         C         0.51609   0.14404   0.26454   -0.141164           
         C         C         0.33271   0.73010   0.24747   0.029294  
         C         C         0.39289   0.85267   0.24754   0.175873  
         C         C         0.33178   0.79261   0.24639   -0.224355           
         H         H         0.28440   0.79387   0.24561   0.135005  
         H         H         0.42390   0.04505   0.26999   0.107283  
         H         H         0.48703   0.16937   0.27258   0.104848  
         O         O         0.50826   0.92008   0.25105   -0.342694           
         C         C         0.58694   0.07513   0.24934   -0.042613           
         C         C         0.62297   0.14598   0.24933   -0.141202           
         C         C         0.39660   0.73132   0.24783   0.026700  
         C         C         0.45546   0.85368   0.24851   0.173913  
         C         C         0.45878   0.79490   0.24741   -0.223658           
         H         H         0.50833   0.79820   0.24657   0.134699  
         H         H         0.61520   0.04895   0.24118   0.106166  
         H         H         0.67898   0.17350   0.24117   0.103376  
         O         O         0.41399   0.49370   0.24097   -0.343699           
         C         C         0.48901   0.41536   0.23669   -0.052868           
         C         C         0.52290   0.37780   0.24005   -0.141386           
         C         C         0.33594   0.60552   0.23865   0.030682  
         C         C         0.39962   0.54598   0.24382   0.176962  
         C         C         0.33787   0.54426   0.23548   -0.227832           
         H         H         0.29257   0.49690   0.22472   0.135741  
         H         H         0.43541   0.39304   0.21478   0.106470  
         H         H         0.49531   0.32804   0.21525   0.106865  
         O         O         0.07812   0.58509   0.25659   -0.340426           
         C         C         0.92251   0.50742   0.26541   -0.042491           
         C         C         0.85106   0.47162   0.26963   -0.141406           
         C         C         0.26885   0.66508   0.24648   0.029884  
         C         C         0.14574   0.60037   0.25045   0.172031  
         C         C         0.20449   0.66160   0.25539   -0.233403           
         H         H         0.20061   0.70510   0.26894   0.133735  
         H         H         0.94895   0.55866   0.28484   0.106140  
         H         H         0.82360   0.49561   0.29486   0.103827  
         C         C         0.62750   0.25805   0.25867   0.073332  
         C         C         0.51452   0.03692   0.25638   -0.233793           
         C         C         0.58861   0.18231   0.25838   0.083373  
         C         C         0.73806   0.36712   0.25076   0.067619  
         C         C         0.96077   0.47714   0.24265   -0.246602           
         C         C         0.81415   0.40434   0.24884   0.070931  
         C         C         0.62970   0.36742   0.26033   0.068420  
         C         C         0.52335   0.48313   0.25513   -0.241265           
         C         C         0.59262   0.40543   0.26530   0.075180  
         C         C         0.59364   0.29516   0.26368   -0.168080           
         C         C         0.69953   0.29451   0.25614   -0.169756           
         C         C         0.70215   0.40318   0.24933   -0.176036           
         H         H         0.72611   0.26539   0.25881   0.099573  
         H         H         0.73092   0.46015   0.24067   0.099472  
         H         H         0.53772   0.26708   0.27177   0.098087  
         B         B         0.48333   0.96271   0.75169   0.581438  
         B         B         0.04121   0.52500   0.74198   0.586125  
         B         B         0.48115   0.52048   0.75295   0.584884  
         O         O         0.08238   0.49555   0.73384   -0.340235           
         C         C         0.92661   0.41663   0.72941   -0.046086           
         C         C         0.85541   0.38059   0.73015   -0.140374           
         C         C         0.27183   0.60843   0.73717   0.030541  
         C         C         0.14896   0.54813   0.73828   0.175742  
         C         C         0.20896   0.54705   0.73187   -0.228980           
         H         H         0.20717   0.50015   0.72127   0.134521  
         H         H         0.95498   0.39158   0.71442   0.104842  
         H         H         0.83075   0.32897   0.71280   0.103322  
         O         O         0.51142   0.58938   0.76596   -0.340680           
         C         C         0.58801   0.50686   0.79112   -0.039069           
         C         C         0.62260   0.46956   0.79786   -0.142238           
         C         C         0.39866   0.66802   0.75211   0.031632  
         C         C         0.45836   0.60415   0.75901   0.170655  
         C         C         0.46040   0.66510   0.76340   -0.229803           
         H         H         0.50833   0.70886   0.77758   0.133966  
         H         H         0.61356   0.55622   0.81795   0.104648  
         H         H         0.67423   0.48993   0.83335   0.102739  
         O         O         0.41227   0.92401   0.74257   -0.343483           
         C         C         0.48815   0.08036   0.73799   -0.048403           
         C         C         0.52335   0.15154   0.73683   -0.137282           
         C         C         0.33629   0.73403   0.74712   0.030695  
         C         C         0.39900   0.85683   0.74553   0.175058  
         C         C         0.33730   0.79809   0.74216   -0.223370           
         H         H         0.29119   0.80210   0.73530   0.135255  
         H         H         0.43397   0.05587   0.72105   0.106308  
         H         H         0.49589   0.18173   0.71686   0.103431  
         O         O         0.51389   0.92083   0.75760   -0.344238           
         C         C         0.59182   0.07358   0.77681   -0.047218           
         C         C         0.62662   0.14411   0.77858   -0.138566           
         C         C         0.39906   0.73271   0.75226   0.026579  
         C         C         0.46033   0.85506   0.75346   0.175613  
         C         C         0.46183   0.79476   0.75558   -0.225056           
         H         H         0.51038   0.79568   0.75962   0.134766  
         H         H         0.61909   0.04353   0.79240   0.106986  
         H         H         0.68029   0.16678   0.79891   0.102142  
         O         O         0.41057   0.49272   0.73932   -0.342003           
         C         C         0.48739   0.41458   0.72901   -0.052541           
         C         C         0.52255   0.37825   0.73195   -0.138494           
         C         C         0.33622   0.60771   0.73901   0.028771  
         C         C         0.39751   0.54579   0.74322   0.175034  
         C         C         0.33669   0.54617   0.73294   -0.225786           
         H         H         0.29102   0.50040   0.71813   0.135656  
         H         H         0.43472   0.39312   0.69972   0.106083  
         H         H         0.49714   0.33047   0.69953   0.102957  
         O         O         0.08153   0.59477   0.75091   -0.340737           
         C         C         0.92378   0.51608   0.75982   -0.041265           
         C         C         0.85233   0.47935   0.76324   -0.144276           
         C         C         0.27163   0.67012   0.74507   0.029457  
         C         C         0.14858   0.60811   0.74791   0.169728  
         C         C         0.20828   0.66890   0.75144   -0.234525           
         H         H         0.20584   0.71357   0.76281   0.135101  
         H         H         0.94964   0.56832   0.77500   0.104618  
         H         H         0.82439   0.50377   0.78367   0.104885  
         C         C         0.63083   0.26091   0.75896   0.075118  
         C         C         0.52163   0.03982   0.75693   -0.232841           
         C         C         0.59346   0.18515   0.75890   0.083774  
         C         C         0.74004   0.37224   0.74804   0.064588  
         C         C         0.96275   0.48562   0.74269   -0.244054           
         C         C         0.81614   0.41092   0.74691   0.074363  
         C         C         0.62973   0.36831   0.76197   0.071365  
         C         C         0.51956   0.48025   0.75618   -0.242548           
         C         C         0.59121   0.40497   0.76607   0.072354  
         C         C         0.59492   0.29512   0.77032   -0.171843           
         C         C         0.70321   0.30023   0.74993   -0.173126           
         C         C         0.70239   0.40635   0.74797   -0.175399           
         H         H         0.73158   0.27427   0.74242   0.098699  
         H         H         0.73001   0.46370   0.73725   0.100333  
         H         H         0.53853   0.26357   0.78924   0.102370 

