
##########################################################################
#               Crystallographic Information Format file
#               Produced by PyCifRW module
#
#  This is a CIF file.  CIF has been adopted by the International
#  Union of Crystallography as the standard for data archiving and
#  transmission.
#
#  For information on this file format, follow the CIF links at
#  http://www.iucr.org
##########################################################################

data_image0

_cell_length_a                          15.0858
_cell_length_b                          15.0573
_cell_length_c                          7.91529
_cell_angle_alpha                       78.9155
_cell_angle_beta                        123.824
_cell_angle_gamma                       119.939
_symmetry_space_group_name_H-M          'P 1'
_space_group_name_Hall                  'P 1'
loop_
  _atom_site_type_symbol
  _atom_site_label
  _atom_site_fract_x
  _atom_site_fract_y
  _atom_site_fract_z
  _atom_site_charge
         B         B         0.43923   0.57035   0.26336   0.583939  
         C         C         0.38230   0.62959   0.26916   -0.243826           
         B         B         0.43610   0.90904   0.24829   0.591016  
         C         C         0.37934   0.79215   0.25707   -0.252193           
         B         B         0.10058   0.57137   0.26267   0.579883  
         C         C         0.21842   0.63034   0.26366   -0.232465           
         O         O         0.54282   0.96966   0.24661   -0.338583           
         C         C         0.65030   0.25298   0.23191   0.031828  
         C         C         0.55956   0.06932   0.23779   0.174539  
         C         C         0.65046   0.15852   0.23295   -0.229909           
         H         H         0.71987   0.15537   0.23012   0.135489  
         O         O         0.03767   0.61750   0.25664   -0.340630           
         C         C         0.74951   0.44504   0.24157   0.021943  
         C         C         0.93667   0.53659   0.25290   0.172204  
         C         C         0.84553   0.53941   0.24736   -0.218905           
         H         H         0.84863   0.61304   0.24637   0.137194  
         O         O         0.38636   0.46226   0.24249   -0.337605           
         C         C         0.55466   0.34947   0.23111   0.028509  
         C         C         0.46603   0.44247   0.23987   0.170872  
         C         C         0.45944   0.34946   0.22755   -0.218237           
         H         H         0.38353   0.27862   0.21883   0.137824  
         O         O         0.04029   0.46394   0.26386   -0.339846           
         C         C         0.74888   0.35011   0.23835   0.030541  
         C         C         0.93756   0.44384   0.25470   0.177235  
         C         C         0.84574   0.35081   0.24661   -0.220598           
         H         H         0.84869   0.28053   0.24498   0.137148  
         O         O         0.38721   0.96950   0.24028   -0.338736           
         C         C         0.55430   0.25270   0.22809   0.029402  
         C         C         0.46564   0.06914   0.23395   0.168078  
         C         C         0.46024   0.15811   0.22754   -0.229368           
         H         H         0.38658   0.15481   0.22674   0.135827  
         O         O         0.54965   0.61718   0.27364   -0.334731           
         C         C         0.65223   0.44479   0.24027   0.034627  
         C         C         0.56373   0.53613   0.25596   0.174281  
         C         C         0.65586   0.53941   0.25380   -0.238927           
         H         H         0.72912   0.61325   0.26353   0.138837  
         C         C         0.43396   0.73711   0.26497   0.004616  
         C         C         0.27118   0.73750   0.25530   0.004262  
         C         C         0.27500   0.57760   0.26967   -0.008636           
         H         H         0.23442   0.49439   0.27431   0.110697  
         H         H         0.51685   0.77831   0.26364   0.108170  
         H         H         0.22743   0.77911   0.24791   0.107252  
         B         B         0.46080   0.53496   0.76067   0.573796  
         C         C         0.40373   0.59372   0.76789   -0.238325           
         B         B         0.45680   0.87284   0.75445   0.589998  
         C         C         0.40145   0.75591   0.76462   -0.247874           
         B         B         0.12444   0.53450   0.77166   0.583534  
         C         C         0.24113   0.59299   0.76906   -0.244390           
         O         O         0.56393   0.93306   0.75378   -0.339662           
         C         C         0.67455   0.21696   0.74298   0.028490  
         C         C         0.58143   0.03297   0.74554   0.172878  
         C         C         0.67421   0.12210   0.74533   -0.236067           
         H         H         0.74464   0.11843   0.74711   0.135720  
         O         O         0.06143   0.58088   0.76404   -0.339380           
         C         C         0.77285   0.40887   0.74730   0.034320  
         C         C         0.96104   0.50042   0.76198   0.174655  
         C         C         0.86904   0.50324   0.75331   -0.229835           
         H         H         0.87115   0.57656   0.74974   0.136889  
         O         O         0.40994   0.42700   0.74557   -0.335812           
         C         C         0.57797   0.31391   0.73618   0.033691  
         C         C         0.48871   0.40723   0.74063   0.185444  
         C         C         0.48341   0.31419   0.73402   -0.234500           
         H         H         0.40979   0.24419   0.73364   0.136121  
         O         O         0.06536   0.42756   0.77644   -0.336958           
         C         C         0.77330   0.31397   0.74901   0.026684  
         C         C         0.96253   0.40760   0.76727   0.177706  
         C         C         0.87107   0.31478   0.76057   -0.220317           
         H         H         0.87479   0.24444   0.76320   0.134482  
         O         O         0.40743   0.93359   0.74337   -0.335077           
         C         C         0.57806   0.21705   0.73678   0.028860  
         C         C         0.48695   0.03315   0.73894   0.174866  
         C         C         0.48305   0.12272   0.73444   -0.227085           
         H         H         0.40930   0.11996   0.73256   0.135289  
         O         O         0.56782   0.58152   0.75930   -0.340953           
         C         C         0.67443   0.40887   0.74120   0.026716  
         C         C         0.58362   0.50033   0.74742   0.173728  
         C         C         0.67566   0.50330   0.74598   -0.227757           
         H         H         0.74765   0.57696   0.75168   0.136705  
         C         C         0.45534   0.70139   0.76700   0.009001  
         C         C         0.29448   0.70060   0.76603   0.002536  
         C         C         0.29648   0.54067   0.76875   -0.009780           
         H         H         0.25502   0.45720   0.76882   0.111544  
         H         H         0.53775   0.74362   0.76435   0.107147  
         H         H         0.25138   0.74146   0.76420   0.109954 

