
##########################################################################
#               Crystallographic Information Format file
#               Produced by PyCifRW module
#
#  This is a CIF file.  CIF has been adopted by the International
#  Union of Crystallography as the standard for data archiving and
#  transmission.
#
#  For information on this file format, follow the CIF links at
#  http://www.iucr.org
##########################################################################

data_image0

_cell_length_a                          37.5385
_cell_length_b                          37.8843
_cell_length_c                          8.12998
_cell_angle_alpha                       107.898
_cell_angle_beta                        57.1894
_cell_angle_gamma                       120.119
_symmetry_space_group_name_H-M          'P 1'
_space_group_name_Hall                  'P 1'
loop_
  _atom_site_type_symbol
  _atom_site_label
  _atom_site_fract_x
  _atom_site_fract_y
  _atom_site_fract_z
  _atom_site_charge
         B         B         0.84274   0.41977   0.27277   0.579752  
         C         C         0.88961   0.44340   0.27609   -0.229322           
         C         C         0.97984   0.48836   0.25522   0.072384  
         B         B         0.58262   0.42162   0.23434   0.579606  
         C         C         0.55954   0.44567   0.23627   -0.229176           
         C         C         0.51416   0.49064   0.26365   0.071385  
         B         B         0.58028   0.15673   0.22874   0.586834  
         C         C         0.55679   0.10997   0.22885   -0.240650           
         C         C         0.51314   0.02288   0.23629   0.068315  
         B         B         0.16212   0.58033   0.24014   0.579147  
         C         C         0.11510   0.55669   0.23887   -0.233153           
         C         C         0.02615   0.51174   0.24852   0.074393  
         B         B         0.42598   0.58139   0.26133   0.581424  
         C         C         0.44858   0.55821   0.27014   -0.230793           
         C         C         0.49117   0.51395   0.27289   0.077370  
         B         B         0.42488   0.84414   0.25708   0.586858  
         C         C         0.44785   0.89078   0.25329   -0.240381           
         C         C         0.49055   0.97773   0.24270   0.069937  
         O         O         0.82009   0.37694   0.25517   -0.344717           
         C         C         0.91384   0.42339   0.26574   -0.055811           
         C         C         0.95792   0.44530   0.25434   -0.135486           
         C         C         0.70719   0.33263   0.24419   0.027963  
         C         C         0.78017   0.36929   0.25282   0.176884  
         C         C         0.74519   0.33253   0.24251   -0.222610           
         H         H         0.74707   0.30437   0.23449   0.134877  
         H         H         0.89794   0.39018   0.26595   0.107015  
         H         H         0.97553   0.42857   0.24495   0.101349  
         O         O         0.62499   0.43975   0.24148   -0.345585           
         C         C         0.57721   0.48840   0.27023   -0.041087           
         C         C         0.55485   0.51028   0.28496   -0.144499           
         C         C         0.66851   0.37079   0.24633   0.028442  
         C         C         0.63205   0.40743   0.24323   0.172328  
         C         C         0.66831   0.40842   0.25014   -0.226780           
         H         H         0.69591   0.43762   0.25687   0.136503  
         H         H         0.60816   0.50430   0.29049   0.105132  
         H         H         0.56843   0.54301   0.31881   0.102922  
         O         O         0.56278   0.18120   0.22162   -0.338770           
         C         C         0.51484   0.08689   0.21718   -0.044301           
         C         C         0.49368   0.04444   0.21995   -0.142945           
         C         C         0.63148   0.29446   0.23219   0.026425  
         C         C         0.59488   0.22107   0.22666   0.170831  
         C         C         0.59423   0.25687   0.22503   -0.231739           
         H         H         0.56582   0.25576   0.21666   0.134132  
         H         H         0.49889   0.10242   0.20324   0.105359  
         H         H         0.46189   0.02803   0.20620   0.106209  
         O         O         0.18581   0.62318   0.24773   -0.341064           
         C         C         0.09443   0.57611   0.21679   -0.058397           
         C         C         0.05128   0.55408   0.21939   -0.139365           
         C         C         0.29926   0.66797   0.25288   0.028245  
         C         C         0.22580   0.63097   0.24930   0.182062  
         C         C         0.26131   0.66783   0.25325   -0.228431           
         H         H         0.25987   0.69572   0.25394   0.136058  
         H         H         0.11286   0.60876   0.19410   0.107526  
         H         H         0.03749   0.56995   0.19363   0.102450  
         O         O         0.38255   0.56274   0.26296   -0.344615           
         C         C         0.42436   0.51596   0.29888   -0.038718           
         C         C         0.44498   0.49442   0.30174   -0.136266           
         C         C         0.33835   0.63058   0.25288   0.028821  
         C         C         0.37559   0.59464   0.25544   0.174120  
         C         C         0.33846   0.59325   0.25431   -0.227849           
         H         H         0.30994   0.56399   0.25685   0.134497  
         H         H         0.38885   0.50009   0.31911   0.104531  
         H         H         0.42490   0.46198   0.32801   0.103332  
         O         O         0.44370   0.82042   0.26051   -0.342887           
         C         C         0.49200   0.91411   0.24522   -0.043978           
         C         C         0.51283   0.95642   0.23909   -0.143719           
         C         C         0.37596   0.70692   0.25609   0.030144  
         C         C         0.41170   0.78027   0.25925   0.173251  
         C         C         0.41345   0.74483   0.25820   -0.234928           
         H         H         0.44276   0.74633   0.26068   0.134399  
         H         H         0.51005   0.89890   0.24534   0.106524  
         H         H         0.54697   0.97305   0.23260   0.106325  
         O         O         0.38192   0.81939   0.25559   -0.338589           
         C         C         0.42544   0.91183   0.25650   -0.049243           
         C         C         0.44617   0.95422   0.25198   -0.140401           
         C         C         0.33784   0.70658   0.25496   0.028927  
         C         C         0.37444   0.77978   0.25709   0.173278  
         C         C         0.33775   0.74396   0.25381   -0.232599           
         H         H         0.31019   0.74494   0.24715   0.134795  
         H         H         0.39146   0.89457   0.26066   0.107717  
         H         H         0.42756   0.96898   0.25330   0.106107  
         O         O         0.44564   0.62404   0.25235   -0.342694           
         C         C         0.49421   0.57805   0.24707   -0.057983           
         C         C         0.51510   0.55637   0.24684   -0.138386           
         C         C         0.37626   0.66846   0.25466   0.029300  
         C         C         0.41331   0.63170   0.25182   0.177410  
         C         C         0.41425   0.66847   0.25330   -0.223842           
         H         H         0.44335   0.69662   0.25652   0.135197  
         H         H         0.51363   0.61078   0.22612   0.108029  
         H         H         0.55085   0.57250   0.22337   0.102941  
         O         O         0.18687   0.56186   0.23847   -0.343909           
         C         C         0.09033   0.51442   0.26648   -0.041390           
         C         C         0.04679   0.49264   0.27323   -0.144355           
         C         C         0.29956   0.63032   0.25108   0.032304  
         C         C         0.22632   0.59398   0.24479   0.173107  
         C         C         0.26211   0.59281   0.24645   -0.230022           
         H         H         0.26115   0.56355   0.24338   0.135681  
         H         H         0.10498   0.49878   0.28850   0.105310  
         H         H         0.02809   0.46040   0.30294   0.106171  
         O         O         0.62259   0.18092   0.23705   -0.340474           
         C         C         0.57663   0.08848   0.24249   -0.048855           
         C         C         0.55526   0.04616   0.24716   -0.144433           
         C         C         0.66877   0.29421   0.23779   0.032377  
         C         C         0.63109   0.22087   0.23456   0.174810  
         C         C         0.66789   0.25639   0.24009   -0.236838           
         H         H         0.69470   0.25495   0.25066   0.133903  
         H         H         0.60885   0.10526   0.25324   0.105897  
         H         H         0.57113   0.03115   0.26451   0.104385  
         O         O         0.56381   0.37872   0.23144   -0.345632           
         C         C         0.51896   0.42595   0.21449   -0.058376           
         C         C         0.49703   0.44795   0.22623   -0.136974           
         C         C         0.63144   0.33316   0.23550   0.030672  
         C         C         0.59539   0.37057   0.23545   0.183467  
         C         C         0.59428   0.33354   0.23123   -0.225957           
         H         H         0.56565   0.30563   0.22238   0.134936  
         H         H         0.50488   0.39302   0.18518   0.107829  
         H         H         0.46698   0.43192   0.19988   0.103664  
         O         O         0.81745   0.43841   0.28065   -0.341083           
         C         C         0.91144   0.48638   0.27641   -0.042117           
         C         C         0.95531   0.50824   0.26656   -0.142202           
         C         C         0.70669   0.37056   0.25130   0.029755  
         C         C         0.77894   0.40644   0.26590   0.172281  
         C         C         0.74340   0.40792   0.26348   -0.226938           
         H         H         0.74390   0.43731   0.27258   0.134930  
         H         H         0.89368   0.50270   0.28301   0.107145  
         H         H         0.97055   0.54138   0.26858   0.103958  
         B         B         0.83684   0.41629   0.76681   0.576976  
         C         C         0.88368   0.43938   0.76967   -0.232960           
         C         C         0.97260   0.48345   0.76074   0.069782  
         B         B         0.57791   0.42169   0.73436   0.580292  
         C         C         0.55514   0.44603   0.73587   -0.231096           
         C         C         0.51012   0.49122   0.76178   0.071981  
         B         B         0.57301   0.15520   0.73137   0.589687  
         C         C         0.54969   0.10843   0.73068   -0.238826           
         C         C         0.50687   0.02132   0.73333   0.070325  
         B         B         0.15593   0.57594   0.73642   0.580363  
         C         C         0.10903   0.55162   0.73381   -0.230868           
         C         C         0.01878   0.50661   0.75538   0.075481  
         B         B         0.42096   0.58193   0.76632   0.576745  
         C         C         0.44437   0.55891   0.77027   -0.230104           
         C         C         0.48733   0.51461   0.76998   0.080890  
         B         B         0.41767   0.84259   0.75617   0.587988  
         C         C         0.44079   0.88926   0.75285   -0.241163           
         C         C         0.48419   0.97620   0.74046   0.063542  
         O         O         0.81330   0.37350   0.75266   -0.341390           
         C         C         0.90440   0.41938   0.78732   -0.057866           
         C         C         0.94758   0.44093   0.78461   -0.140716           
         C         C         0.70073   0.33058   0.74191   0.029682  
         C         C         0.77362   0.36647   0.75065   0.182683  
         C         C         0.73842   0.32994   0.74033   -0.228342           
         H         H         0.74003   0.30171   0.73310   0.135897  
         H         H         0.88611   0.38657   0.80591   0.107515  
         H         H         0.96154   0.42446   0.80529   0.104797  
         O         O         0.62019   0.43937   0.74160   -0.341269           
         C         C         0.57254   0.48872   0.77232   -0.043312           
         C         C         0.55040   0.51072   0.78608   -0.143637           
         C         C         0.66236   0.36940   0.74746   0.029722  
         C         C         0.62665   0.40677   0.74473   0.172240  
         C         C         0.66264   0.40729   0.75172   -0.231555           
         H         H         0.69054   0.43630   0.75822   0.137747  
         H         H         0.60310   0.50444   0.79530   0.106882  
         H         H         0.56380   0.54338   0.82160   0.102873  
         O         O         0.55453   0.17979   0.73284   -0.341926           
         C         C         0.50508   0.08555   0.74300   -0.043288           
         C         C         0.48414   0.04312   0.74513   -0.144979           
         C         C         0.62433   0.29301   0.73604   0.028031  
         C         C         0.58731   0.21962   0.73233   0.172721  
         C         C         0.58626   0.25555   0.73522   -0.237206           
         H         H         0.55691   0.25473   0.73579   0.136326  
         H         H         0.48665   0.10127   0.75019   0.105475  
         H         H         0.44966   0.02679   0.75483   0.108518  
         O         O         0.17840   0.61890   0.74757   -0.346296           
         C         C         0.08524   0.57153   0.73958   -0.055359           
         C         C         0.04118   0.54960   0.75136   -0.140747           
         C         C         0.29210   0.66588   0.75465   0.031129  
         C         C         0.21865   0.62767   0.75024   0.179436  
         C         C         0.25376   0.66495   0.75475   -0.227163           
         H         H         0.25197   0.69266   0.75514   0.135945  
         H         H         0.10152   0.60469   0.73566   0.107422  
         H         H         0.02413   0.56634   0.75604   0.106063  
         O         O         0.37753   0.56274   0.76703   -0.346014           
         C         C         0.42002   0.51676   0.80154   -0.041893           
         C         C         0.44082   0.49524   0.80314   -0.143766           
         C         C         0.33201   0.62930   0.75556   0.026092  
         C         C         0.36989   0.59427   0.76029   0.173557  
         C         C         0.33276   0.59228   0.75674   -0.226408           
         H         H         0.30487   0.56273   0.75640   0.134698  
         H         H         0.38420   0.50086   0.82550   0.106711  
         H         H         0.42056   0.46293   0.83223   0.104469  
         O         O         0.43649   0.81890   0.75957   -0.339909           
         C         C         0.48337   0.91262   0.75911   -0.042748           
         C         C         0.50434   0.95498   0.75408   -0.138975           
         C         C         0.36874   0.70553   0.75825   0.029199  
         C         C         0.40442   0.77881   0.75915   0.173992  
         C         C         0.40610   0.74352   0.76002   -0.232375           
         H         H         0.43535   0.74531   0.76418   0.133923  
         H         H         0.49985   0.89741   0.77131   0.105927  
         H         H         0.53651   0.97168   0.76493   0.102694  
         O         O         0.37464   0.81778   0.75476   -0.342784           
         C         C         0.42015   0.91036   0.74241   -0.049292           
         C         C         0.44139   0.95267   0.73528   -0.139366           
         C         C         0.33045   0.70482   0.75696   0.028799  
         C         C         0.36704   0.77813   0.75727   0.174908  
         C         C         0.33015   0.74217   0.75629   -0.237827           
         H         H         0.30213   0.74292   0.75234   0.136083  
         H         H         0.38733   0.89321   0.73648   0.105244  
         H         H         0.42473   0.96737   0.72127   0.105202  
         O         O         0.43977   0.62461   0.75980   -0.341781           
         C         C         0.49057   0.57852   0.74087   -0.052753           
         C         C         0.51168   0.55684   0.73911   -0.145357           
         C         C         0.36948   0.66742   0.75817   0.031139  
         C         C         0.40710   0.63161   0.75860   0.180637  
         C         C         0.40759   0.66808   0.75872   -0.226430           
         H         H         0.43655   0.69637   0.76157   0.135430  
         H         H         0.51037   0.61106   0.71572   0.106668  
         H         H         0.54786   0.57274   0.71051   0.105570  
         O         O         0.18156   0.55837   0.73354   -0.340404           
         C         C         0.08676   0.50872   0.73899   -0.041616           
         C         C         0.04281   0.48681   0.74925   -0.143138           
         C         C         0.29306   0.62852   0.75292   0.033137  
         C         C         0.22017   0.59108   0.74405   0.172213  
         C         C         0.25618   0.59063   0.74697   -0.232306           
         H         H         0.25575   0.56163   0.74398   0.136517  
         H         H         0.10413   0.49259   0.73742   0.107304  
         H         H         0.02702   0.45373   0.75225   0.102792  
         O         O         0.61639   0.17919   0.72987   -0.341033           
         C         C         0.57270   0.08676   0.71689   -0.047781           
         C         C         0.55197   0.04434   0.71683   -0.137980           
         C         C         0.66214   0.29241   0.73590   0.029796  
         C         C         0.62460   0.21914   0.73014   0.172670  
         C         C         0.66172   0.25451   0.73318   -0.229699           
         H         H         0.68920   0.25288   0.73773   0.133687  
         H         H         0.60714   0.10351   0.70829   0.107110  
         H         H         0.57117   0.02906   0.70589   0.104442  
         O         O         0.55873   0.37876   0.73077   -0.345169           
         C         C         0.51496   0.42651   0.71136   -0.057066           
         C         C         0.49313   0.44860   0.72296   -0.140632           
         C         C         0.62489   0.33194   0.73789   0.029147  
         C         C         0.58980   0.37010   0.73638   0.177590  
         C         C         0.58819   0.33284   0.73211   -0.221878           
         H         H         0.55968   0.30507   0.72118   0.134436  
         H         H         0.50117   0.39364   0.67979   0.107143  
         H         H         0.46337   0.43278   0.69479   0.105885  
         O         O         0.81225   0.43550   0.77289   -0.341969           
         C         C         0.90845   0.48181   0.74644   -0.037766           
         C         C         0.95197   0.50314   0.73985   -0.140750           
         C         C         0.70050   0.36868   0.75043   0.029993  
         C         C         0.77314   0.40384   0.76166   0.172867  
         C         C         0.73768   0.40579   0.76078   -0.229081           
         H         H         0.73873   0.43535   0.76884   0.135389  
         H         H         0.89378   0.49798   0.72819   0.103389  
         H         H         0.97059   0.53557   0.71410   0.103381 

