
##########################################################################
#               Crystallographic Information Format file
#               Produced by PyCifRW module
#
#  This is a CIF file.  CIF has been adopted by the International
#  Union of Crystallography as the standard for data archiving and
#  transmission.
#
#  For information on this file format, follow the CIF links at
#  http://www.iucr.org
##########################################################################

data_image0

_cell_length_a                          28.4777
_cell_length_b                          28.3457
_cell_length_c                          28.2805
_cell_angle_alpha                       90.1447
_cell_angle_beta                        90.1567
_cell_angle_gamma                       90.1029
_symmetry_space_group_name_H-M          'P 1'
_space_group_name_Hall                  'P 1'
loop_
  _atom_site_type_symbol
  _atom_site_label
  _atom_site_fract_x
  _atom_site_fract_y
  _atom_site_fract_z
  _atom_site_charge
         C         C         0.59009   0.90614   0.03344   -0.049015           
         C         C         0.55443   0.93026   0.00994   -0.149038           
         C         C         0.77477   0.81113   0.15148   0.027112  
         C         C         0.70702   0.84749   0.11623   0.172550  
         H         H         0.73553   0.78293   0.09058   0.140854  
         O         O         0.66950   0.85514   0.08582   -0.339050           
         H         H         0.54070   0.91621   0.97686   0.111751  
         C         C         0.73870   0.81095   0.11658   -0.234632           
         H         H         0.40216   0.01889   0.13177   0.109008  
         C         C         0.41060   0.09459   0.03893   -0.047500           
         C         C         0.44631   0.07226   0.01389   -0.151242           
         C         C         0.22387   0.18415   0.15216   0.027163  
         C         C         0.29285   0.14848   0.11925   0.174965  
         H         H         0.26144   0.20960   0.08941   0.140948  
         O         O         0.33033   0.14053   0.08928   -0.340062           
         H         H         0.45800   0.08692   0.98043   0.112813  
         C         C         0.25964   0.18343   0.11724   -0.237186           
         H         H         0.60621   0.98123   0.12620   0.108579  
         C         C         0.41172   0.90486   0.96791   -0.047648           
         C         C         0.44841   0.92920   0.98978   -0.149846           
         C         C         0.22354   0.81178   0.84880   0.027545  
         C         C         0.29025   0.84787   0.88670   0.173256  
         H         H         0.25890   0.78466   0.91227   0.136975  
         O         O         0.32644   0.85587   0.91872   -0.339054           
         H         H         0.46321   0.91559   0.02246   0.110948  
         C         C         0.25778   0.81198   0.88554   -0.233038           
         H         H         0.60201   0.02537   0.87054   0.107971  
         C         C         0.58755   0.09960   0.96403   -0.046829           
         C         C         0.55176   0.07550   0.98737   -0.152836           
         C         C         0.77553   0.18997   0.84636   0.026338  
         C         C         0.70757   0.15495   0.88229   0.172978  
         H         H         0.74032   0.21664   0.90997   0.140924  
         O         O         0.67121   0.14736   0.91388   -0.337919           
         H         H         0.53825   0.08951   0.02047   0.111830  
         C         C         0.74076   0.19014   0.88231   -0.235813           
         H         H         0.39332   0.97837   0.87484   0.108337  
         C         C         0.03785   0.58397   0.90052   -0.044137           
         C         C         0.01495   0.54873   0.92590   -0.153258           
         C         C         0.15431   0.77368   0.80920   0.025146  
         C         C         0.11910   0.70452   0.84331   0.172449  
         H         H         0.09298   0.73608   0.78032   0.140014  
         O         O         0.08834   0.66710   0.85025   -0.337970           
         H         H         0.98337   0.53262   0.91139   0.110936  
         C         C         0.11945   0.73765   0.80792   -0.235458           
         H         H         0.13490   0.40177   0.02141   0.108090  
         C         C         0.04042   0.40933   0.09449   -0.046702           
         C         C         0.01617   0.44539   0.07174   -0.151772           
         C         C         0.15354   0.22322   0.18789   0.026430  
         C         C         0.12090   0.29214   0.15110   0.174785  
         H         H         0.09372   0.26389   0.21514   0.140367  
         O         O         0.09205   0.33058   0.14324   -0.340323           
         H         H         0.98229   0.45660   0.08532   0.112789  
         C         C         0.11996   0.26028   0.18765   -0.235315           
         H         H         0.12657   0.60767   0.97794   0.109245  
         C         C         0.97126   0.40564   0.90893   -0.047808           
         C         C         0.99429   0.44231   0.93222   -0.148713           
         C         C         0.84988   0.22300   0.81274   0.026932  
         C         C         0.88817   0.28830   0.85120   0.171833  
         H         H         0.91754   0.25352   0.79140   0.136483  
         O         O         0.92130   0.32276   0.86142   -0.338904           
         H         H         0.02842   0.45401   0.91967   0.112292  
         C         C         0.88835   0.25492   0.81589   -0.231312           
         H         H         0.87738   0.60537   0.01536   0.109518  
         C         C         0.96288   0.58693   0.09754   -0.047462           
         C         C         0.98762   0.55113   0.07465   -0.153250           
         C         C         0.84392   0.77228   0.18978   0.025863  
         C         C         0.87992   0.70494   0.15308   0.175633  
         H         H         0.90616   0.73524   0.21675   0.137237  
         O         O         0.91158   0.66879   0.14490   -0.339033           
         H         H         0.01890   0.53661   0.09122   0.111268  
         C         C         0.87919   0.73688   0.18970   -0.233705           
         H         H         0.87381   0.39855   0.97795   0.108156  
         C         C         0.89678   0.03987   0.58121   -0.045621           
         C         C         0.92235   0.01459   0.54765   -0.154170           
         C         C         0.80995   0.15463   0.77313   0.027507  
         C         C         0.84178   0.12206   0.70165   0.172225  
         H         H         0.77941   0.09537   0.73331   0.141003  
         O         O         0.84764   0.09245   0.66309   -0.339331           
         H         H         0.90759   0.98242   0.53268   0.112444  
         C         C         0.80739   0.12128   0.73560   -0.237250           
         H         H         0.02092   0.13079   0.40071   0.108422  
         C         C         0.09257   0.03536   0.41061   -0.047623           
         C         C         0.06859   0.01111   0.44589   -0.147673           
         C         C         0.18687   0.15029   0.22474   0.028194  
         C         C         0.15009   0.11644   0.29304   0.174514  
         H         H         0.20962   0.08534   0.26026   0.137084  
         O         O         0.14079   0.08530   0.32940   -0.339681           
         H         H         0.08158   0.97710   0.45783   0.113186  
         C         C         0.18494   0.11441   0.25967   -0.233701           
         H         H         0.97482   0.12854   0.60252   0.109407  
         C         C         0.90591   0.96444   0.40814   -0.046507           
         C         C         0.93055   0.98923   0.44269   -0.151430           
         C         C         0.81207   0.84738   0.22331   0.027567  
         C         C         0.84713   0.88151   0.29279   0.173462  
         H         H         0.79360   0.91633   0.25353   0.139949  
         O         O         0.85723   0.91377   0.32828   -0.338747           
         H         H         0.92026   0.02516   0.45125   0.112970  
         C         C         0.81510   0.88495   0.25658   -0.236021           
         H         H         0.01981   0.87655   0.60913   0.109315  
         C         C         0.09699   0.96537   0.58683   -0.048948           
         C         C         0.07198   0.98866   0.55145   -0.151651           
         C         C         0.18885   0.84780   0.77579   0.025719  
         C         C         0.15420   0.88364   0.70703   0.173385  
         H         H         0.21235   0.91417   0.74360   0.137035  
         O         O         0.14518   0.91623   0.67161   -0.338584           
         H         H         0.08656   0.02048   0.53586   0.111072  
         C         C         0.18788   0.88485   0.74194   -0.232896           
         H         H         0.96872   0.86250   0.40933   0.107860  
         C         C         0.90803   0.59010   0.03255   -0.049498           
         C         C         0.93276   0.55436   0.00973   -0.143889           
         C         C         0.81032   0.77397   0.15209   0.028276  
         C         C         0.84709   0.70654   0.11617   0.171297  
         H         H         0.78809   0.74100   0.08523   0.137433  
         O         O         0.85721   0.67136   0.08359   -0.338069           
         H         H         0.92120   0.54227   0.97506   0.107782  
         C         C         0.81237   0.74018   0.11485   -0.232812           
         H         H         0.02542   0.39314   0.12588   0.109177  
         C         C         0.10175   0.41406   0.03601   -0.044310           
         C         C         0.07771   0.45055   0.01360   -0.156291           
         C         C         0.18786   0.22074   0.15111   0.027348  
         C         C         0.15343   0.28869   0.11423   0.172944  
         H         H         0.21176   0.25246   0.08455   0.141423  
         O         O         0.14537   0.32434   0.08173   -0.338441           
         H         H         0.09244   0.46618   0.98186   0.111852  
         C         C         0.18697   0.25396   0.11353   -0.237254           
         H         H         0.97517   0.59982   0.13169   0.107981  
         C         C         0.90753   0.41093   0.96480   -0.047457           
         C         C         0.93068   0.44763   0.98814   -0.150312           
         C         C         0.81306   0.22517   0.84695   0.027804  
         C         C         0.85106   0.29166   0.88342   0.176064  
         H         H         0.78600   0.26419   0.90816   0.137921  
         O         O         0.85945   0.32868   0.91433   -0.339377           
         H         H         0.91483   0.46351   0.01926   0.110192  
         C         C         0.81380   0.26089   0.88227   -0.236519           
         H         H         0.02383   0.59518   0.86651   0.107840  
         C         C         0.09541   0.59095   0.96306   -0.048294           
         C         C         0.07229   0.55601   0.98851   -0.148627           
         C         C         0.18785   0.77472   0.84695   0.028383  
         C         C         0.15191   0.70577   0.88029   0.172552  
         H         H         0.21013   0.74016   0.91272   0.141342  
         O         O         0.14283   0.66944   0.91156   -0.337373           
         H         H         0.08538   0.54582   0.02317   0.114437  
         C         C         0.18602   0.73995   0.88299   -0.236149           
         H         H         0.98756   0.38910   0.87834   0.108919  
         C         C         0.58788   0.03979   0.90324   -0.045000           
         C         C         0.55206   0.01573   0.92656   -0.153421           
         C         C         0.77473   0.15421   0.81062   0.027531  
         C         C         0.70745   0.11930   0.84793   0.174181  
         H         H         0.73868   0.08996   0.78621   0.139755  
         O         O         0.67115   0.08811   0.85706   -0.339412           
         H         H         0.53885   0.98276   0.91187   0.112287  
         C         C         0.73994   0.11821   0.81211   -0.234900           
         H         H         0.39488   0.12659   0.02481   0.108658  
         C         C         0.41454   0.03430   0.09886   -0.046795           
         C         C         0.45026   0.01199   0.07373   -0.150573           
         C         C         0.22346   0.14927   0.18860   0.026368  
         C         C         0.29225   0.11398   0.15459   0.174034  
         H         H         0.25958   0.08669   0.21642   0.141567  
         O         O         0.32927   0.08309   0.14754   -0.338778           
         H         H         0.46509   0.97936   0.08720   0.110940  
         C         C         0.25862   0.11369   0.18935   -0.236873           
         H         H         0.60133   0.13216   0.97918   0.109288  
         C         C         0.40881   0.96418   0.90701   -0.048205           
         C         C         0.44554   0.98847   0.92892   -0.151803           
         C         C         0.22384   0.84808   0.81374   0.028064  
         C         C         0.29040   0.88339   0.85239   0.176596  
         H         H         0.26003   0.91241   0.79017   0.141641  
         O         O         0.32660   0.91459   0.86176   -0.340912           
         H         H         0.45800   0.02141   0.91376   0.111423  
         C         C         0.25833   0.88431   0.81605   -0.239271           
         H         H         0.60367   0.87347   0.01852   0.108778  
         C         C         0.59154   0.96650   0.09378   -0.047216           
         C         C         0.55576   0.99046   0.07031   -0.152249           
         C         C         0.77671   0.84831   0.18575   0.025323  
         C         C         0.70951   0.88433   0.14923   0.172327  
         H         H         0.74344   0.91406   0.20950   0.139669  
         O         O         0.67392   0.91641   0.14041   -0.338577           
         H         H         0.54297   0.02366   0.08462   0.112858  
         C         C         0.74325   0.88543   0.18403   -0.233904           
         H         H         0.39864   0.87246   0.98376   0.108757  
         C         C         0.03485   0.90779   0.59275   -0.049852           
         C         C         0.00967   0.93143   0.55784   -0.146316           
         C         C         0.15513   0.81041   0.77296   0.029819  
         C         C         0.12146   0.84680   0.70406   0.171867  
         H         H         0.09561   0.78227   0.73198   0.140782  
         O         O         0.09073   0.85517   0.66695   -0.337779           
         H         H         0.97506   0.91867   0.54769   0.110385  
         C         C         0.12151   0.81010   0.73570   -0.236582           
         H         H         0.12434   0.02025   0.39563   0.108143  
         C         C         0.03473   0.09735   0.41344   -0.048772           
         C         C         0.01096   0.07323   0.44901   -0.151417           
         C         C         0.15269   0.18725   0.22489   0.026742  
         C         C         0.11679   0.15271   0.29351   0.174583  
         H         H         0.09050   0.21514   0.26125   0.136870  
         O         O         0.08572   0.14540   0.33050   -0.340377           
         H         H         0.97892   0.08807   0.46354   0.109972  
         C         C         0.11727   0.18801   0.26028   -0.233403           
         H         H         0.13072   0.97943   0.59840   0.107847  
         C         C         0.95769   0.89803   0.41880   -0.044663           
         C         C         0.98254   0.92308   0.45335   -0.155124           
         C         C         0.84334   0.80814   0.22703   0.028081  
         C         C         0.87602   0.84190   0.29787   0.173192  
         H         H         0.89794   0.77528   0.27104   0.141322  
         O         O         0.90480   0.84788   0.33705   -0.338469           
         H         H         0.01279   0.90679   0.47014   0.111788  
         C         C         0.87488   0.80526   0.26599   -0.235812           
         H         H         0.86252   0.02683   0.59222   0.108527  
         C         C         0.95972   0.09677   0.58699   -0.048286           
         C         C         0.98532   0.07134   0.55378   -0.147967           
         C         C         0.84745   0.18831   0.77448   0.026974  
         C         C         0.87843   0.15504   0.70293   0.176551  
         H         H         0.91083   0.21320   0.73789   0.141091  
         O         O         0.90818   0.14726   0.66507   -0.340449           
         H         H         0.02016   0.08344   0.54380   0.113212  
         C         C         0.88198   0.18817   0.73828   -0.237284           
         H         H         0.87650   0.98119   0.39019   0.109170  
         B         B         0.65003   0.89834   0.10066   0.588428  
         C         C         0.60935   0.92369   0.07590   -0.241179           
         C         C         0.53634   0.97257   0.02822   0.077032  
         B         B         0.35209   0.09956   0.10667   0.588884  
         C         C         0.39372   0.07596   0.08182   -0.242394           
         C         C         0.46674   0.03054   0.03085   0.076055  
         B         B         0.34866   0.89732   0.90276   0.589367  
         C         C         0.39081   0.92200   0.92618   -0.240684           
         C         C         0.46592   0.97147   0.97079   0.077374  
         B         B         0.64895   0.10588   0.89779   0.586062  
         C         C         0.60688   0.08193   0.92175   -0.240855           
         C         C         0.53369   0.03291   0.96931   0.077131  
         B         B         0.10301   0.64644   0.89301   0.587636  
         C         C         0.07857   0.60573   0.91859   -0.243866           
         C         C         0.03185   0.53414   0.97018   0.077162  
         B         B         0.10727   0.34996   0.10021   0.588899  
         C         C         0.08344   0.39241   0.07674   -0.243064           
         C         C         0.03429   0.46652   0.03079   0.078941  
         B         B         0.90294   0.34753   0.90033   0.589074  
         C         C         0.92737   0.38914   0.92480   -0.242648           
         C         C         0.97432   0.46403   0.97208   0.078263  
         B         B         0.89727   0.64846   0.10165   0.586141  
         C         C         0.92270   0.60741   0.07702   -0.239707           
         C         C         0.97297   0.53420   0.03033   0.076874  
         B         B         0.88971   0.10731   0.64185   0.589910  
         C         C         0.91494   0.08147   0.60158   -0.244230           
         C         C         0.96697   0.03001   0.53333   0.077122  
         B         B         0.10074   0.10334   0.35202   0.589169  
         C         C         0.07596   0.07885   0.39334   -0.241089           
         C         C         0.02749   0.02977   0.46589   0.075385  
         B         B         0.89358   0.89291   0.35475   0.588295  
         C         C         0.91892   0.91815   0.39548   -0.244217           
         C         C         0.96903   0.96891   0.46624   0.079323  
         B         B         0.10527   0.89865   0.64788   0.587032  
         C         C         0.07917   0.92414   0.60792   -0.239493           
         C         C         0.02818   0.97177   0.53591   0.077199  
         C         C         0.50077   0.00199   -0.00044  0.000976  
         C         C         0.00336   0.49988   0.00110   -0.001859           
         C         C         0.99809   -0.00010  0.50047   -0.000227 

