
##########################################################################
#               Crystallographic Information Format file
#               Produced by PyCifRW module
#
#  This is a CIF file.  CIF has been adopted by the International
#  Union of Crystallography as the standard for data archiving and
#  transmission.
#
#  For information on this file format, follow the CIF links at
#  http://www.iucr.org
##########################################################################

data_image0

_cell_length_a                          21.5989
_cell_length_b                          21.5282
_cell_length_c                          8.09573
_cell_angle_alpha                       84.94
_cell_angle_beta                        64.7872
_cell_angle_gamma                       120.331
_symmetry_space_group_name_H-M          'P 1'
_space_group_name_Hall                  'P 1'
loop_
  _atom_site_type_symbol
  _atom_site_label
  _atom_site_fract_x
  _atom_site_fract_y
  _atom_site_fract_z
  _atom_site_charge
         C         C         0.56913   0.00400   0.25946   0.003689  
         C         C         0.00434   0.57398   0.24811   0.011134  
         C         C         0.43280   0.43510   0.25775   0.001940  
         C         C         0.43106   0.00315   0.25830   0.001390  
         C         C         0.57503   0.57690   0.24032   -0.003195           
         C         C         0.56474   0.06666   0.25423   0.095609  
         C         C         0.94128   0.50633   0.25010   0.094862  
         C         C         0.50190   0.44226   0.25063   0.095244  
         C         C         0.43534   0.94044   0.26377   0.098282  
         C         C         0.06465   0.50220   0.24744   0.089570  
         C         C         0.50573   0.56967   0.24764   0.097124  
         O         O         0.62201   0.13799   0.25015   -0.331032           
         O         O         0.87207   0.49378   0.24776   -0.335583           
         O         O         0.51551   0.38572   0.25195   -0.334505           
         O         O         0.37844   0.86930   0.26641   -0.332212           
         O         O         0.13372   0.51482   0.25095   -0.336086           
         O         O         0.49194   0.62611   0.24587   -0.334508           
         C         C         0.06594   0.56795   0.24689   0.093308  
         C         C         0.43869   0.50282   0.25661   0.099417  
         C         C         0.50063   0.94107   0.26324   0.097270  
         C         C         0.93981   0.44054   0.25101   0.092736  
         C         C         0.56891   0.50899   0.24229   0.095512  
         C         C         0.49961   0.06614   0.25434   0.094052  
         O         O         0.13618   0.62362   0.24889   -0.338391           
         O         O         0.38142   0.51571   0.26009   -0.330255           
         O         O         0.48632   0.87041   0.26432   -0.336790           
         O         O         0.86924   0.38476   0.25020   -0.339626           
         O         O         0.62606   0.49581   0.23856   -0.333590           
         O         O         0.51402   0.13689   0.25266   -0.334389           
         C         C         0.63124   0.26329   0.24946   -0.245799           
         C         C         0.74696   0.37851   0.24372   -0.232558           
         C         C         0.63298   0.37833   0.24569   -0.248463           
         C         C         0.37118   0.74510   0.26016   -0.244105           
         C         C         0.25822   0.63048   0.25738   -0.233783           
         C         C         0.37315   0.63226   0.25509   -0.247460           
         B         B         0.58954   0.18040   0.25078   0.585081  
         B         B         0.82859   0.41870   0.24691   0.575926  
         B         B         0.59214   0.41955   0.24521   0.583853  
         B         B         0.41118   0.82711   0.26441   0.582009  
         B         B         0.17695   0.58983   0.25230   0.575585  
         B         B         0.41504   0.59189   0.25356   0.582930  
         C         C         0.29742   0.59446   0.25653   0.001140  
         C         C         0.40928   0.70772   0.25649   0.003390  
         C         C         0.29571   0.70564   0.26071   -0.004659           
         C         C         0.70907   0.41568   0.24247   0.000802  
         C         C         0.59486   0.30206   0.24930   0.005357  
         C         C         0.70742   0.30254   0.24596   -0.005899           
         H         H         0.46759   0.73764   0.25695   0.105415  
         H         H         0.26549   0.73386   0.26308   0.108664  
         H         H         0.26871   0.53602   0.25541   0.106438  
         H         H         0.53626   0.27264   0.24999   0.105369  
         H         H         0.73667   0.27350   0.24530   0.108402  
         H         H         0.73917   0.47465   0.24031   0.105247  
         H         H         0.93892   0.31379   0.28885   0.144497  
         H         H         0.04894   0.37804   0.09114   0.137307  
         H         H         0.31351   0.99124   0.40538   0.134202  
         H         H         0.38864   0.05987   0.15620   0.141806  
         H         H         0.38302   0.33047   0.20049   0.142778  
         H         H         0.30683   0.32520   0.41962   0.134678  
         H         H         0.69074   0.02282   0.11205   0.135280  
         H         H         0.66527   0.04531   0.32672   0.139143  
         H         H         0.67689   0.63318   0.28885   0.139628  
         H         H         0.69719   0.69053   0.07449   0.134801  
         H         H         0.94741   0.62723   0.39002   0.141350  
         H         H         0.06158   0.69093   0.23819   0.139724  
         C         C         0.63832   0.00453   0.26246   -0.390045           
         C         C         0.00380   0.64319   0.25104   -0.383591           
         C         C         0.36149   0.36378   0.26562   -0.391183           
         H         H         0.02101   0.35231   0.33912   0.133618  
         C         C         0.36182   0.00296   0.25676   -0.391061           
         H         H         0.32952   0.95777   0.20829   0.143220  
         H         H         0.33880   0.38016   0.18458   0.139194  
         C         C         0.00217   0.36550   0.24278   -0.384127           
         H         H         0.61295   0.94610   0.35059   0.142806  
         C         C         0.64729   0.64853   0.22898   -0.389494           
         H         H         0.62460   0.67794   0.31248   0.143650  
         H         H         0.00032   0.66423   0.12902   0.134920  
         C         C         0.00160   0.43456   0.24903   0.014375  
         C         C         0.56641   0.99521   0.76011   0.000752  
         C         C         0.00067   0.56729   0.74698   0.010841  
         C         C         0.42575   0.42383   0.75911   -0.001400           
         C         C         0.42651   0.99325   0.76710   0.003323  
         C         C         0.56846   0.56603   0.73923   0.001868  
         C         C         0.56130   0.05738   0.75799   0.095370  
         C         C         0.93702   0.49974   0.74963   0.091563  
         C         C         0.49562   0.43153   0.74943   0.098152  
         C         C         0.43216   0.93137   0.76652   0.095662  
         C         C         0.05917   0.49413   0.75124   0.092985  
         C         C         0.49889   0.55846   0.74816   0.099222  
         O         O         0.61895   0.12901   0.75206   -0.334950           
         O         O         0.86811   0.48736   0.74559   -0.336522           
         O         O         0.50937   0.37504   0.75062   -0.333649           
         O         O         0.37583   0.86068   0.76651   -0.332815           
         O         O         0.12797   0.50644   0.75583   -0.338363           
         O         O         0.48515   0.61491   0.74768   -0.334605           
         C         C         0.06142   0.56039   0.74800   0.095407  
         C         C         0.43140   0.49148   0.75823   0.093297  
         C         C         0.49812   0.93239   0.76278   0.097730  
         C         C         0.93467   0.43341   0.75337   0.093242  
         C         C         0.56282   0.49841   0.73974   0.095290  
         C         C         0.49542   0.05639   0.76127   0.097700  
         O         O         0.13162   0.61598   0.75013   -0.338285           
         O         O         0.37368   0.50440   0.76477   -0.334503           
         O         O         0.48511   0.86262   0.75802   -0.332531           
         O         O         0.86410   0.37762   0.75281   -0.337098           
         O         O         0.62038   0.48563   0.73453   -0.331349           
         O         O         0.50998   0.12721   0.75845   -0.334941           
         C         C         0.62774   0.25440   0.74969   -0.244479           
         C         C         0.74241   0.37073   0.74358   -0.237322           
         C         C         0.62787   0.36868   0.74311   -0.246375           
         C         C         0.36878   0.73706   0.75582   -0.245532           
         C         C         0.25349   0.62237   0.75877   -0.231612           
         C         C         0.36711   0.62212   0.75776   -0.249513           
         B         B         0.58629   0.17125   0.75319   0.583092  
         B         B         0.82396   0.41184   0.74740   0.577037  
         B         B         0.58642   0.40926   0.74214   0.583983  
         B         B         0.40958   0.81914   0.75991   0.583007  
         B         B         0.17178   0.58180   0.75555   0.573598  
         B         B         0.40794   0.58081   0.75722   0.585456  
         C         C         0.29103   0.58497   0.76102   0.000089  
         C         C         0.40506   0.69818   0.75547   0.003970  
         C         C         0.29321   0.69837   0.75663   -0.004669           
         C         C         0.70395   0.40706   0.74012   0.002705  
         C         C         0.59066   0.29233   0.74775   0.001693  
         C         C         0.70363   0.29450   0.74721   -0.002574           
         H         H         0.46334   0.72729   0.75604   0.104807  
         H         H         0.26464   0.72797   0.75575   0.108335  
         H         H         0.26062   0.52594   0.76372   0.106193  
         H         H         0.53219   0.26208   0.74797   0.105128  
         H         H         0.73319   0.26596   0.74859   0.107742  
         H         H         0.73355   0.46620   0.73668   0.106109  
         H         H         0.03057   0.36133   0.60339   0.134915  
         H         H         0.02105   0.34845   0.83414   0.135195  
         H         H         0.29837   0.93347   0.83376   0.143172  
         H         H         0.34288   0.02694   0.85160   0.140182  
         H         H         0.37878   0.33591   0.64569   0.139666  
         H         H         0.31944   0.30178   0.90749   0.136900  
         H         H         0.68107   0.05186   0.76050   0.142650  
         H         H         0.60996   0.94871   0.89076   0.140874  
         H         H         0.66596   0.62181   0.80211   0.138935  
         H         H         0.69269   0.67798   0.57551   0.133805  
         H         H         0.03155   0.67484   0.59072   0.135290  
         H         H         0.94052   0.62357   0.83777   0.141717  
         C         C         0.63649   0.99639   0.75942   -0.392201           
         C         C         0.00461   0.63896   0.74201   -0.383156           
         C         C         0.35403   0.35159   0.77086   -0.390973           
         H         H         0.92713   0.30321   0.82674   0.144108  
         C         C         0.35693   0.99325   0.76861   -0.390439           
         H         H         0.37693   0.02046   0.61661   0.132855  
         H         H         0.30876   0.36054   0.76833   0.143002  
         C         C         0.99319   0.35581   0.75533   -0.382698           
         H         H         0.67227   0.98884   0.62832   0.136682  
         C         C         0.64008   0.63760   0.73007   -0.390542           
         H         H         0.61769   0.66899   0.80397   0.143270  
         H         H         0.04592   0.67471   0.79052   0.140031  
         C         C         0.99553   0.42658   0.75413   0.013162 

