
##########################################################################
#               Crystallographic Information Format file
#               Produced by PyCifRW module
#
#  This is a CIF file.  CIF has been adopted by the International
#  Union of Crystallography as the standard for data archiving and
#  transmission.
#
#  For information on this file format, follow the CIF links at
#  http://www.iucr.org
##########################################################################

data_image0

_cell_length_a                          21.6336
_cell_length_b                          21.6048
_cell_length_c                          8.27064
_cell_angle_alpha                       103.519
_cell_angle_beta                        110.26
_cell_angle_gamma                       120.78
_symmetry_space_group_name_H-M          'P 1'
_space_group_name_Hall                  'P 1'
loop_
  _atom_site_type_symbol
  _atom_site_label
  _atom_site_fract_x
  _atom_site_fract_y
  _atom_site_fract_z
  _atom_site_charge
         C         C         0.57262   0.01315   0.25470   -0.044813           
         C         C         0.00638   0.57699   0.24500   -0.043534           
         C         C         0.43451   0.43955   0.23083   -0.053934           
         C         C         0.42672   0.00266   0.23068   -0.050795           
         C         C         0.00419   0.43918   0.25855   -0.050308           
         C         C         0.58237   0.58694   0.26747   -0.053492           
         C         C         0.56401   0.07250   0.24864   0.102459  
         C         C         0.94292   0.50951   0.24535   0.100343  
         C         C         0.50504   0.44890   0.24215   0.098211  
         C         C         0.43572   0.94334   0.23583   0.099238  
         C         C         0.06763   0.50626   0.25774   0.101595  
         C         C         0.51234   0.57831   0.25814   0.100840  
         O         O         0.62092   0.14414   0.25141   -0.331378           
         O         O         0.87229   0.49617   0.24196   -0.340262           
         O         O         0.51630   0.39084   0.23539   -0.333022           
         O         O         0.37940   0.87140   0.23324   -0.337680           
         O         O         0.13719   0.51868   0.25657   -0.337349           
         O         O         0.49974   0.63563   0.26373   -0.337329           
         C         C         0.06902   0.57161   0.25285   0.107718  
         C         C         0.44268   0.50908   0.24155   0.109336  
         C         C         0.50435   0.94825   0.24831   0.103053  
         C         C         0.94171   0.44482   0.25095   0.103867  
         C         C         0.57438   0.51751   0.25853   0.105661  
         C         C         0.49572   0.06840   0.23817   0.105831  
         O         O         0.14025   0.62652   0.25165   -0.334937           
         O         O         0.38604   0.52240   0.23889   -0.329704           
         O         O         0.49342   0.88010   0.25569   -0.338542           
         O         O         0.87024   0.38891   0.25015   -0.334404           
         O         O         0.63094   0.50385   0.26130   -0.331174           
         O         O         0.50923   0.13824   0.23440   -0.332132           
         C         C         0.62759   0.26600   0.23813   -0.235647           
         C         C         0.74529   0.38104   0.24417   -0.230090           
         C         C         0.63280   0.38275   0.24447   -0.249356           
         C         C         0.37764   0.75222   0.25358   -0.237304           
         C         C         0.26288   0.63455   0.24792   -0.231048           
         C         C         0.38000   0.64007   0.25411   -0.243946           
         B         B         0.58610   0.18382   0.24170   0.576235  
         B         B         0.82824   0.42152   0.24511   0.574574  
         B         B         0.59411   0.42557   0.24729   0.582797  
         B         B         0.41648   0.83373   0.24820   0.578681  
         B         B         0.18093   0.59290   0.25179   0.574976  
         B         B         0.42187   0.60023   0.25254   0.582760  
         C         C         0.30282   0.59976   0.24780   0.001601  
         C         C         0.41721   0.71690   0.25969   0.002813  
         C         C         0.30075   0.71040   0.24811   -0.013578           
         C         C         0.70933   0.41971   0.24838   0.000038  
         C         C         0.59272   0.30585   0.23928   0.002856  
         C         C         0.70343   0.30420   0.23873   -0.011312           
         H         H         0.47697   0.74874   0.26464   0.104889  
         H         H         0.26988   0.73758   0.24417   0.110370  
         H         H         0.27362   0.54034   0.24418   0.105611  
         H         H         0.53418   0.27725   0.23963   0.105223  
         H         H         0.73052   0.27343   0.23504   0.108355  
         H         H         0.74098   0.47933   0.25304   0.103999  
         H         H         0.73246   0.08992   0.59976   0.121468  
         H         H         0.63321   0.96099   0.24887   0.104261  
         H         H         0.76161   0.66749   0.48459   0.126418  
         H         H         0.66018   0.64119   0.15927   0.088659  
         H         H         0.28201   0.38888   0.24637   0.124834  
         H         H         0.35090   0.30844   0.10450   0.097929  
         H         H         0.34938   0.07703   0.12577   0.122188  
         H         H         0.29099   0.93311   0.07354   0.096022  
         H         H         0.93219   0.27450   0.96315   0.119464  
         H         H         0.06467   0.38656   0.30988   0.104081  
         H         H         0.09457   0.70461   0.15425   0.123371  
         H         H         0.94366   0.60987   0.07480   0.098039  
         H         H         0.74684   0.15344   0.49112   0.128996  
         H         H         0.65194   0.02703   0.14775   0.091667  
         H         H         0.74485   0.72829   0.61651   0.119756  
         H         H         0.64443   0.70447   0.28292   0.104657  
         H         H         0.22550   0.28111   0.09433   0.115233  
         H         H         0.38553   0.36381   0.35131   0.085591  
         H         H         0.40851   0.12029   0.38807   0.121674  
         H         H         0.34388   0.97365   0.33208   0.095558  
         H         H         0.86447   0.26985   0.04338   0.132025  
         H         H         -0.00040  0.37064   0.40471   0.093771  
         H         H         0.13805   0.75258   0.41292   0.125390  
         H         H         0.98252   0.65934   0.32810   0.097316  
         C         C         0.73358   0.09506   0.47177   -0.378222           
         C         C         0.64742   0.02004   0.27163   -0.120043           
         H         H         0.78772   0.10050   0.47770   0.117488  
         C         C         0.74536   0.70793   0.48261   -0.372781           
         C         C         0.65760   0.66203   0.28967   -0.116328           
         H         H         0.79761   0.76357   0.49492   0.117956  
         C         C         0.27645   0.34458   0.13231   -0.368738           
         C         C         0.36189   0.36139   0.20677   -0.110567           
         H         H         0.25524   0.34949   -0.00165  0.122764  
         C         C         0.35044   0.06301   0.24523   -0.367668           
         C         C         0.34953   0.98996   0.21835   -0.107686           
         H         H         0.29345   0.04778   0.24428   0.115764  
         C         C         0.92571   0.28246   0.09060   -0.376657           
         C         C         0.00289   0.37065   0.27493   -0.115796           
         H         H         0.92100   0.23473   0.12548   0.115371  
         C         C         0.08010   0.72013   0.26429   -0.372017           
         C         C         0.00003   0.64167   0.22666   -0.117947           
         H         H         0.06914   0.76378   0.25390   0.115972  
         C         C         0.57017   0.99316   0.74570   -0.049220           
         C         C         -0.00128  0.56588   0.74118   -0.043044           
         C         C         0.41903   0.41245   0.72114   -0.053137           
         C         C         0.42518   0.98377   0.72565   -0.051756           
         C         C         -0.00022  0.43018   0.75981   -0.048074           
         C         C         0.56920   0.56225   0.77049   -0.050307           
         C         C         0.56207   0.05297   0.74189   0.106295  
         C         C         0.93576   0.49763   0.74154   0.095637  
         C         C         0.48951   0.42159   0.73171   0.099920  
         C         C         0.43482   0.92505   0.73444   0.097832  
         C         C         0.06124   0.49673   0.75511   0.100845  
         C         C         0.49882   0.55311   0.76005   0.101327  
         O         O         0.61886   0.12480   0.74474   -0.335626           
         O         O         0.86550   0.48389   0.74197   -0.338708           
         O         O         0.50158   0.36380   0.72361   -0.336456           
         O         O         0.37900   0.85368   0.73407   -0.336864           
         O         O         0.13117   0.50923   0.75803   -0.339363           
         O         O         0.48864   0.61220   0.77375   -0.333616           
         C         C         0.06168   0.56110   0.74696   0.106430  
         C         C         0.42821   0.48308   0.73775   0.105300  
         C         C         0.50317   0.92943   0.74551   0.100841  
         C         C         0.93577   0.43369   0.74862   0.107161  
         C         C         0.55995   0.49168   0.75347   0.107870  
         C         C         0.49361   0.04876   0.73114   0.109157  
         O         O         0.13339   0.61605   0.74643   -0.335920           
         O         O         0.37248   0.49749   0.73898   -0.331795           
         O         O         0.49276   0.86185   0.75660   -0.333190           
         O         O         0.86551   0.37774   0.75087   -0.333480           
         O         O         0.61694   0.47871   0.75719   -0.330338           
         O         O         0.50647   0.11811   0.72572   -0.333101           
         C         C         0.62440   0.24739   0.73583   -0.235494           
         C         C         0.74058   0.36689   0.74907   -0.235816           
         C         C         0.62337   0.36113   0.74228   -0.244454           
         C         C         0.37544   0.73476   0.75700   -0.236936           
         C         C         0.25702   0.62101   0.75078   -0.229702           
         C         C         0.37079   0.61916   0.76085   -0.247145           
         B         B         0.58355   0.16408   0.73393   0.570957  
         B         B         0.82311   0.40977   0.74803   0.576407  
         B         B         0.58071   0.40034   0.74062   0.582936  
         B         B         0.41589   0.81581   0.74921   0.582182  
         B         B         0.17470   0.58273   0.75141   0.573813  
         B         B         0.41022   0.57679   0.75949   0.582327  
         C         C         0.29356   0.58263   0.75397   0.000658  
         C         C         0.41122   0.69568   0.76415   0.002014  
         C         C         0.29841   0.69654   0.75078   -0.012237           
         C         C         0.70120   0.40217   0.75160   0.002178  
         C         C         0.58603   0.28391   0.73476   0.002818  
         C         C         0.70149   0.28963   0.74204   -0.012159           
         H         H         0.47060   0.72427   0.76770   0.105359  
         H         H         0.27022   0.72639   0.74584   0.109754  
         H         H         0.26175   0.52386   0.75354   0.103737  
         H         H         0.52666   0.25245   0.73147   0.102753  
         H         H         0.73166   0.26185   0.74060   0.107872  
         H         H         0.73129   0.46239   0.75927   0.106381  
         H         H         0.73198   0.05606   0.07028   0.120304  
         H         H         0.62508   0.93679   0.71071   0.106176  
         H         H         0.72782   0.61387   0.79000   0.127290  
         H         H         0.62593   0.63842   0.65748   0.086397  
         H         H         0.24170   0.30965   0.43574   0.117412  
         H         H         0.34140   0.28303   0.62115   0.100806  
         H         H         0.36426   0.07455   0.66403   0.125730  
         H         H         0.29109   0.92191   0.55310   0.094085  
         H         H         0.94158   0.27214   0.47739   0.119009  
         H         H         0.06936   0.38746   0.82466   0.104990  
         H         H         0.08495   0.69561   0.65391   0.124385  
         H         H         0.93577   0.60270   0.58652   0.098434  
         H         H         0.74502   0.12858   0.98961   0.127904  
         H         H         0.64557   0.00854   0.62686   0.093561  
         H         H         0.74538   0.65140   0.02889   0.122985  
         H         H         0.65269   0.69346   0.89660   0.100562  
         H         H         0.25551   0.35867   0.66380   0.125155  
         H         H         0.36137   0.34372   0.84510   0.089081  
         H         H         0.40982   0.09976   0.91695   0.122827  
         H         H         0.33348   0.94593   0.80235   0.095164  
         H         H         0.86943   0.25938   0.54964   0.127896  
         H         H         0.00232   0.36605   0.91489   0.093922  
         H         H         0.13203   0.74229   0.91437   0.123876  
         H         H         0.97904   0.64981   0.84270   0.095499  
         C         C         0.73065   0.06848   0.94836   -0.372561           
         C         C         0.64230   0.99794   0.74846   -0.120096           
         H         H         0.78293   0.07543   0.93846   0.117751  
         C         C         0.73026   0.65787   0.89584   -0.372486           
         C         C         0.64447   0.64098   0.80247   -0.118674           
         H         H         0.78390   0.72159   0.94093   0.114730  
         C         C         0.25667   0.31233   0.57948   -0.367659           
         C         C         0.34485   0.33506   0.69549   -0.113087           
         H         H         0.20500   0.25093   0.54914   0.114853  
         C         C         0.35522   0.04951   0.76230   -0.378277           
         C         C         0.34755   0.97191   0.70791   -0.106362           
         H         H         0.29598   0.03305   0.74994   0.114763  
         C         C         0.93326   0.27741   0.60219   -0.372433           
         C         C         0.00533   0.36632   0.78511   -0.116002           
         H         H         0.93332   0.23201   0.64037   0.115391  
         C         C         0.07280   0.71075   0.76924   -0.369456           
         C         C         0.99339   0.63223   0.73343   -0.117628           
         H         H         0.06247   0.75532   0.76625   0.114862 

