
##########################################################################
#               Crystallographic Information Format file
#               Produced by PyCifRW module
#
#  This is a CIF file.  CIF has been adopted by the International
#  Union of Crystallography as the standard for data archiving and
#  transmission.
#
#  For information on this file format, follow the CIF links at
#  http://www.iucr.org
##########################################################################

data_image0

_cell_length_a                          21.5657
_cell_length_b                          21.6183
_cell_length_c                          7.88975
_cell_angle_alpha                       87.5948
_cell_angle_beta                        66.429
_cell_angle_gamma                       120.43
_symmetry_space_group_name_H-M          'P 1'
_space_group_name_Hall                  'P 1'
loop_
  _atom_site_type_symbol
  _atom_site_label
  _atom_site_fract_x
  _atom_site_fract_y
  _atom_site_fract_z
  _atom_site_charge
         C         C         0.56717   0.00530   0.26014   -0.270932           
         C         C         0.00329   0.57372   0.24670   -0.259518           
         C         C         0.43450   0.43835   0.24198   -0.271160           
         C         C         0.43398   0.00495   0.24123   -0.271314           
         C         C         0.00565   0.44002   0.22313   -0.262416           
         C         C         0.56400   0.56954   0.27706   -0.272865           
         C         C         0.56444   0.06827   0.24973   0.165404  
         C         C         0.94049   0.50761   0.24428   0.161457  
         C         C         0.50008   0.44185   0.24650   0.161396  
         C         C         0.43685   0.94201   0.25113   0.166231  
         C         C         0.06819   0.50592   0.22706   0.162832  
         C         C         0.49866   0.56620   0.27143   0.166335  
         C         C         0.06707   0.56999   0.23781   0.162666  
         C         C         0.50040   0.94212   0.26092   0.163901  
         C         C         0.43654   0.50333   0.25545   0.163259  
         C         C         0.94164   0.44359   0.23320   0.162851  
         C         C         0.50072   0.06813   0.24069   0.162918  
         C         C         0.56202   0.50459   0.26333   0.164727  
         O         O         0.62034   0.13871   0.25016   -0.335534           
         O         O         0.86949   0.49366   0.24933   -0.340792           
         O         O         0.51555   0.38681   0.23632   -0.337106           
         O         O         0.38128   0.87166   0.24962   -0.338310           
         O         O         0.13829   0.51928   0.22610   -0.341198           
         O         O         0.48475   0.62225   0.27462   -0.339368           
         O         O         0.13692   0.62534   0.24161   -0.339334           
         O         O         0.48601   0.87171   0.26618   -0.339409           
         O         O         0.38208   0.51828   0.24912   -0.337257           
         O         O         0.87117   0.38783   0.23234   -0.340258           
         O         O         0.51528   0.13864   0.23531   -0.338327           
         O         O         0.61766   0.49039   0.26476   -0.335722           
         C         C         0.63069   0.26402   0.24064   -0.246604           
         C         C         0.74493   0.37843   0.24099   -0.234426           
         C         C         0.63012   0.37716   0.24357   -0.248578           
         C         C         0.37236   0.74684   0.25544   -0.246956           
         C         C         0.26086   0.63359   0.24368   -0.236552           
         C         C         0.37307   0.63369   0.25435   -0.247588           
         B         B         0.58918   0.18149   0.24168   0.588699  
         B         B         0.82750   0.41963   0.24137   0.576950  
         B         B         0.58826   0.41757   0.24786   0.586605  
         B         B         0.41261   0.82897   0.25770   0.587092  
         B         B         0.17990   0.59311   0.23581   0.578648  
         B         B         0.41293   0.59206   0.25948   0.589644  
         C         C         0.29930   0.59725   0.24604   0.000702  
         C         C         0.40873   0.70850   0.25935   0.007157  
         C         C         0.29823   0.70837   0.24905   -0.004837           
         C         C         0.70592   0.41456   0.24232   0.002026  
         C         C         0.59358   0.30197   0.24136   0.005218  
         C         C         0.70632   0.30308   0.24042   -0.004377           
         H         H         0.38733   0.39031   0.22548   0.165880  
         H         H         0.61625   0.00538   0.26845   0.167466  
         H         H         0.00242   0.62326   0.25539   0.167383  
         H         H         0.61183   0.61787   0.29105   0.166711  
         H         H         0.38450   0.00454   0.23430   0.167236  
         H         H         0.00662   0.39057   0.21346   0.169374  
         H         H         0.46558   0.73737   0.26744   0.107204  
         H         H         0.26916   0.73724   0.24671   0.109343  
         H         H         0.27101   0.53937   0.24155   0.108099  
         H         H         0.53512   0.27225   0.24054   0.107092  
         H         H         0.73559   0.27423   0.24092   0.109212  
         H         H         0.73511   0.47295   0.24286   0.108042  
         C         C         0.56447   0.99595   0.76509   -0.272643           
         C         C         0.00046   0.56457   0.75003   -0.260752           
         C         C         0.42990   0.42832   0.75461   -0.274539           
         C         C         0.43306   0.99641   0.73823   -0.271411           
         C         C         0.00251   0.43062   0.72825   -0.260851           
         C         C         0.56355   0.56189   0.77183   -0.273949           
         C         C         0.56252   0.05937   0.75104   0.167158  
         C         C         0.93765   0.49843   0.74762   0.160100  
         C         C         0.49643   0.43230   0.75429   0.164157  
         C         C         0.43524   0.93314   0.75139   0.166274  
         C         C         0.06541   0.49680   0.73031   0.162425  
         C         C         0.49707   0.55796   0.77170   0.165537  
         C         C         0.06436   0.56091   0.74065   0.162216  
         C         C         0.49826   0.93299   0.76340   0.162347  
         C         C         0.43317   0.49403   0.76332   0.166545  
         C         C         0.93855   0.43422   0.73793   0.164653  
         C         C         0.49970   0.05960   0.73790   0.161760  
         C         C         0.56043   0.49625   0.76233   0.170090  
         O         O         0.61877   0.13010   0.74931   -0.337776           
         O         O         0.86713   0.48478   0.75036   -0.340679           
         O         O         0.51107   0.37672   0.74716   -0.338282           
         O         O         0.37960   0.86276   0.75013   -0.335707           
         O         O         0.13596   0.51054   0.72756   -0.341735           
         O         O         0.48334   0.61413   0.77393   -0.339923           
         O         O         0.13441   0.61644   0.74339   -0.340370           
         O         O         0.48400   0.86262   0.76811   -0.337679           
         O         O         0.37827   0.50866   0.75890   -0.338027           
         O         O         0.86823   0.37857   0.73617   -0.340077           
         O         O         0.51514   0.13060   0.72748   -0.338757           
         O         O         0.61656   0.48222   0.76079   -0.338309           
         C         C         0.62959   0.25571   0.73611   -0.246959           
         C         C         0.74285   0.36967   0.74052   -0.236572           
         C         C         0.62750   0.36798   0.74527   -0.249070           
         C         C         0.37050   0.73807   0.75593   -0.246183           
         C         C         0.25840   0.62471   0.74608   -0.234819           
         C         C         0.37021   0.62446   0.75840   -0.248907           
         B         B         0.58861   0.17335   0.73581   0.587867  
         B         B         0.82509   0.41073   0.74262   0.579559  
         B         B         0.58542   0.40833   0.75116   0.588248  
         B         B         0.41078   0.82002   0.75895   0.586608  
         B         B         0.17755   0.58435   0.73745   0.577436  
         B         B         0.41017   0.58306   0.76434   0.589004  
         C         C         0.29609   0.58787   0.75169   0.000464  
         C         C         0.40668   0.69964   0.76037   0.007904  
         C         C         0.29626   0.69969   0.74968   -0.005328           
         C         C         0.70294   0.40518   0.74580   0.002827  
         C         C         0.59183   0.29330   0.73940   0.008748  
         C         C         0.70519   0.29483   0.73570   -0.005423           
         H         H         0.38077   0.37929   0.74589   0.166500  
         H         H         0.61248   0.99539   0.77769   0.168091  
         H         H         -0.00040  0.61411   0.75906   0.169205  
         H         H         0.61287   0.61112   0.77964   0.166184  
         H         H         0.38495   0.99683   0.72570   0.167064  
         H         H         0.00335   0.38108   0.71924   0.167889  
         H         H         0.46375   0.72838   0.76750   0.106577  
         H         H         0.26730   0.72866   0.74706   0.109737  
         H         H         0.26704   0.52958   0.75047   0.109023  
         H         H         0.53371   0.26383   0.73721   0.106157  
         H         H         0.73540   0.26658   0.73195   0.109954  
         H         H         0.73110   0.46290   0.75121   0.107400 

