
##########################################################################
#               Crystallographic Information Format file
#               Produced by PyCifRW module
#
#  This is a CIF file.  CIF has been adopted by the International
#  Union of Crystallography as the standard for data archiving and
#  transmission.
#
#  For information on this file format, follow the CIF links at
#  http://www.iucr.org
##########################################################################

data_image0

_cell_length_a                          14.5514
_cell_length_b                          14.5137
_cell_length_c                          8.09852
_cell_angle_alpha                       91.7009
_cell_angle_beta                        115.335
_cell_angle_gamma                       119.925
_symmetry_space_group_name_H-M          'P 1'
_space_group_name_Hall                  'P 1'
loop_
  _atom_site_type_symbol
  _atom_site_label
  _atom_site_fract_x
  _atom_site_fract_y
  _atom_site_fract_z
  _atom_site_charge
         C         C         0.62479   0.38909   0.25944   0.373353  
         C         C         0.56495   0.44692   0.25706   0.005114  
         C         C         0.62602   0.23253   0.26134   0.373134  
         C         C         0.56727   0.11533   0.25985   0.005248  
         C         C         0.78065   0.38890   0.25704   0.370227  
         C         C         0.89793   0.44771   0.25719   0.007846  
         C         C         0.39007   0.61445   0.24527   0.374612  
         C         C         0.44805   0.55521   0.24461   0.005343  
         C         C         0.39158   0.77253   0.24834   0.373118  
         C         C         0.45075   0.88976   0.24897   0.004810  
         C         C         0.23771   0.61716   0.25603   0.369676  
         C         C         0.12157   0.55901   0.25871   0.005884  
         C         C         0.60985   0.55268   0.23064   -0.099463           
         H         H         0.58497   0.68733   0.20049   0.114285  
         C         C         0.46456   0.06341   0.28302   -0.103246           
         H         H         0.33009   0.91271   0.30235   0.111128  
         C         C         0.95675   0.39338   0.26535   -0.098560           
         H         H         0.11413   0.40784   0.27296   0.113590  
         C         C         0.40287   0.44919   0.27076   -0.098442           
         H         H         0.42676   0.31410   0.29917   0.114606  
         C         C         0.55300   0.94149   0.22430   -0.103244           
         H         H         0.68791   0.09257   0.20584   0.111852  
         C         C         0.06325   0.61370   0.25234   -0.096856           
         H         H         0.90602   0.59916   0.24590   0.113671  
         C         C         0.55241   0.60654   0.22457   -0.103723           
         H         H         0.68896   0.59057   0.21055   0.111218  
         C         C         0.06764   0.44881   0.26635   -0.097239           
         H         H         0.91434   0.30823   0.27248   0.115857  
         C         C         0.40717   0.95235   0.27827   -0.095412           
         H         H         0.43240   0.11267   0.30840   0.112736  
         C         C         0.46011   0.39525   0.27627   -0.104613           
         H         H         0.32350   0.41104   0.29051   0.111753  
         C         C         0.95241   0.55815   0.25107   -0.097347           
         H         H         0.10625   0.69931   0.24712   0.115341  
         C         C         0.61084   0.05277   0.22984   -0.098966           
         H         H         0.58486   0.89209   0.19827   0.112645  
         N         N         0.44565   0.72068   0.24054   -0.410944           
         N         N         0.28802   0.72459   0.25756   -0.401667           
         N         N         0.28602   0.55887   0.25250   -0.403130           
         N         N         0.57006   0.28308   0.26440   -0.407065           
         N         N         0.73147   0.28189   0.25785   -0.402627           
         N         N         0.73021   0.44590   0.25514   -0.403861           
         C         C         0.60815   0.38432   0.75503   0.373766  
         C         C         0.54957   0.44290   0.75497   0.004256  
         C         C         0.60859   0.22755   0.75763   0.375231  
         C         C         0.54993   0.11070   0.75860   0.005898  
         C         C         0.76381   0.38339   0.75424   0.369446  
         C         C         0.88014   0.44152   0.75147   0.009752  
         C         C         0.37661   0.61147   0.75070   0.372910  
         C         C         0.43475   0.55246   0.74963   0.005203  
         C         C         0.37593   0.76832   0.75006   0.370147  
         C         C         0.43463   0.88562   0.75100   0.006048  
         C         C         0.21988   0.61120   0.74932   0.369440  
         C         C         0.10258   0.55237   0.74887   0.011962  
         C         C         0.59582   0.54957   0.73236   -0.097313           
         H         H         0.57395   0.68612   0.71030   0.114528  
         C         C         0.44724   0.05913   0.78196   -0.105617           
         H         H         0.31322   0.90841   0.80337   0.112276  
         C         C         0.93834   0.38703   0.75750   -0.096792           
         H         H         0.09375   0.40057   0.75977   0.114227  
         C         C         0.38825   0.44557   0.77137   -0.098909           
         H         H         0.41086   0.30928   0.79502   0.114321  
         C         C         0.53702   0.93725   0.72679   -0.102989           
         H         H         0.67090   0.08796   0.70526   0.113474  
         C         C         0.04332   0.60639   0.74066   -0.099722           
         H         H         0.88646   0.59189   0.73384   0.114495  
         C         C         0.53934   0.60413   0.72964   -0.104712           
         H         H         0.67484   0.58771   0.71213   0.112487  
         C         C         0.04856   0.44211   0.75660   -0.100691           
         H         H         0.89605   0.30181   0.76406   0.114410  
         C         C         0.39016   0.94775   0.77896   -0.097817           
         H         H         0.41478   0.10839   0.80691   0.113573  
         C         C         0.44483   0.39107   0.77479   -0.102457           
         H         H         0.30942   0.40737   0.79250   0.110499  
         C         C         0.93317   0.55132   0.74143   -0.101810           
         H         H         0.08456   0.69086   0.73101   0.114833  
         C         C         0.59388   0.04830   0.72975   -0.098930           
         H         H         0.56925   0.88786   0.70166   0.113481  
         N         N         0.43302   0.71816   0.75067   -0.407234           
         N         N         0.26877   0.71813   0.74895   -0.401410           
         N         N         0.26976   0.55410   0.75111   -0.402284           
         N         N         0.55167   0.27764   0.75615   -0.411383           
         N         N         0.71484   0.27697   0.75604   -0.402935           
         N         N         0.71456   0.44126   0.75412   -0.404298 

