
##########################################################################
#               Crystallographic Information Format file
#               Produced by PyCifRW module
#
#  This is a CIF file.  CIF has been adopted by the International
#  Union of Crystallography as the standard for data archiving and
#  transmission.
#
#  For information on this file format, follow the CIF links at
#  http://www.iucr.org
##########################################################################

data_image0

_cell_length_a                          37.6004
_cell_length_b                          37.4868
_cell_length_c                          7.98354
_cell_angle_alpha                       70.851
_cell_angle_beta                        120.519
_cell_angle_gamma                       120.147
_symmetry_space_group_name_H-M          'P 1'
_space_group_name_Hall                  'P 1'
loop_
  _atom_site_type_symbol
  _atom_site_label
  _atom_site_fract_x
  _atom_site_fract_y
  _atom_site_fract_z
  _atom_site_charge
         C         C         0.29562   0.62691   0.25566   0.029111  
         C         C         0.33552   0.59005   0.25702   -0.225962           
         C         C         0.37281   0.59189   0.25610   0.171954  
         O         O         0.38050   0.55995   0.25087   -0.342378           
         C         C         0.42617   0.51304   0.24426   -0.097553           
         C         C         0.44745   0.49121   0.24417   0.067386  
         C         C         0.42699   0.44692   0.24853   -0.135674           
         C         C         0.37254   0.66613   0.25527   0.027776  
         C         C         0.40842   0.74333   0.24578   -0.232239           
         C         C         0.40669   0.77893   0.24757   0.172710  
         O         O         0.43804   0.81966   0.24201   -0.341882           
         C         C         0.48530   0.91274   0.24434   -0.104937           
         C         C         0.50766   0.95599   0.24438   0.066909  
         C         C         0.55150   0.97879   0.24151   -0.133524           
         C         C         0.33390   0.70389   0.25939   0.028215  
         C         C         0.25719   0.66373   0.26007   -0.224440           
         C         C         0.22112   0.62624   0.25493   0.177637  
         O         O         0.18077   0.61763   0.25500   -0.342066           
         C         C         0.08866   0.57200   0.26050   -0.110818           
         C         C         0.04526   0.55149   0.25717   0.071771  
         C         C         0.02352   0.57288   0.26440   -0.133483           
         C         C         0.70655   0.37204   0.25158   0.034485  
         C         C         0.66869   0.41097   0.25132   -0.225028           
         C         C         0.63181   0.41043   0.25058   0.177545  
         O         O         0.62508   0.44326   0.25346   -0.341337           
         C         C         0.57954   0.49258   0.25089   -0.097515           
         C         C         0.55788   0.51460   0.24652   0.065110  
         C         C         0.57827   0.55894   0.24187   -0.133940           
         C         C         0.62969   0.33492   0.25225   0.027144  
         C         C         0.59166   0.25767   0.26135   -0.238469           
         C         C         0.59221   0.22131   0.26149   0.175528  
         O         O         0.55968   0.18104   0.26433   -0.341369           
         C         C         0.50939   0.08723   0.25221   -0.102838           
         C         C         0.48664   0.04401   0.24930   0.068217  
         C         C         0.44254   0.02115   0.24981   -0.137377           
         C         C         0.66666   0.29493   0.25295   0.032080  
         C         C         0.74310   0.33288   0.25045   -0.225643           
         C         C         0.77944   0.36974   0.25058   0.176936  
         O         O         0.81908   0.37693   0.24803   -0.343633           
         C         C         0.91046   0.42194   0.22443   -0.111821           
         C         C         0.95365   0.44249   0.22519   0.071687  
         C         C         0.97540   0.42109   0.21817   -0.137829           
         C         C         0.62924   0.29555   0.25543   0.032382  
         C         C         0.59193   0.33583   0.24814   -0.222319           
         C         C         0.59381   0.37343   0.24736   0.175943  
         O         O         0.56186   0.38205   0.24546   -0.341956           
         C         C         0.51528   0.42739   0.25217   -0.107057           
         C         C         0.49249   0.44798   0.24940   0.071229  
         C         C         0.44861   0.42622   0.25133   -0.136820           
         C         C         0.66809   0.37277   0.25158   0.026764  
         C         C         0.74475   0.40954   0.25010   -0.232921           
         C         C         0.78008   0.40752   0.24875   0.175390  
         O         O         0.81976   0.43956   0.24179   -0.342155           
         C         C         0.91282   0.48662   0.24018   -0.096979           
         C         C         0.95627   0.50851   0.24329   0.066553  
         C         C         0.98076   0.55234   0.25666   -0.133319           
         C         C         0.70570   0.33355   0.25076   0.025769  
         C         C         0.66567   0.25658   0.25220   -0.235089           
         C         C         0.62857   0.22084   0.25605   0.173940  
         O         O         0.61979   0.18045   0.25240   -0.340186           
         C         C         0.57370   0.08696   0.25180   -0.107643           
         C         C         0.55226   0.04376   0.24822   0.072432  
         C         C         0.57292   0.02088   0.24364   -0.135089           
         C         C         0.37171   0.70474   0.25360   0.031521  
         C         C         0.41082   0.66658   0.25787   -0.223249           
         C         C         0.41007   0.62957   0.25823   0.179201  
         O         O         0.44263   0.62227   0.25777   -0.343351           
         C         C         0.49006   0.57840   0.24040   -0.108264           
         C         C         0.51258   0.55793   0.23959   0.070847  
         C         C         0.55642   0.57963   0.23741   -0.141975           
         C         C         0.33484   0.62763   0.25639   0.030674  
         C         C         0.25767   0.58875   0.25162   -0.230660           
         C         C         0.22143   0.58929   0.25165   0.171695  
         O         O         0.18150   0.55636   0.25169   -0.342448           
         C         C         0.08658   0.50729   0.24633   -0.099829           
         C         C         0.04279   0.48542   0.24014   0.066420  
         C         C         0.01827   0.44157   0.22683   -0.136189           
         C         C         0.29537   0.66459   0.25995   0.028295  
         C         C         0.33373   0.74151   0.26230   -0.231750           
         C         C         0.36999   0.77799   0.25620   0.172363  
         O         O         0.37730   0.81799   0.25811   -0.339512           
         C         C         0.42104   0.91268   0.24671   -0.107933           
         C         C         0.44204   0.95600   0.24653   0.067918  
         C         C         0.42121   0.97902   0.24867   -0.136029           
         C         C         0.44709   0.55640   0.24338   -0.225831           
         C         C         0.49126   0.51373   0.24245   0.006188  
         B         B         0.42370   0.57920   0.25100   0.585410  
         C         C         0.44228   0.89074   0.24639   -0.231205           
         C         C         0.48598   0.97803   0.24599   0.005369  
         B         B         0.41941   0.84339   0.24880   0.591740  
         C         C         0.10962   0.55040   0.25511   -0.228172           
         C         C         0.02161   0.50766   0.24444   0.005299  
         B         B         0.15669   0.57430   0.25412   0.589066  
         C         C         0.55862   0.44915   0.25277   -0.223904           
         C         C         0.51380   0.49221   0.24565   0.006186  
         B         B         0.58174   0.42530   0.25063   0.581466  
         C         C         0.55278   0.10900   0.25375   -0.232507           
         C         C         0.50825   0.02185   0.24790   0.002493  
         B         B         0.57708   0.15624   0.25708   0.590970  
         C         C         0.88985   0.44347   0.23287   -0.226931           
         C         C         0.97728   0.48631   0.23737   0.002895  
         B         B         0.84348   0.42027   0.24063   0.588736  
         H         H         0.30744   0.56029   0.25641   0.134930  
         H         H         0.39303   0.49589   0.24790   0.111607  
         H         H         0.39399   0.43011   0.25319   0.111003  
         H         H         0.43693   0.74529   0.23459   0.131853  
         H         H         0.50160   0.89601   0.24080   0.109941  
         H         H         0.56697   0.96170   0.23422   0.113532  
         H         H         0.25597   0.69151   0.26670   0.135504  
         H         H         0.10656   0.60540   0.26825   0.108960  
         H         H         0.04198   0.60607   0.27709   0.111255  
         H         H         0.69742   0.44024   0.25313   0.134566  
         H         H         0.61306   0.50970   0.25100   0.109707  
         H         H         0.61147   0.57585   0.23895   0.109285  
         H         H         0.56312   0.25674   0.26800   0.134790  
         H         H         0.49322   0.10409   0.25586   0.109089  
         H         H         0.42677   0.03821   0.25501   0.112319  
         H         H         0.74335   0.30437   0.24667   0.135944  
         H         H         0.89264   0.38853   0.21728   0.108687  
         H         H         0.95687   0.38789   0.20555   0.112104  
         H         H         0.56201   0.30783   0.24670   0.134057  
         H         H         0.49901   0.39372   0.25499   0.109811  
         H         H         0.43302   0.39255   0.25652   0.110266  
         H         H         0.74671   0.43945   0.24935   0.135301  
         H         H         0.89715   0.50330   0.24910   0.109533  
         H         H         0.96480   0.56881   0.26490   0.109416  
         H         H         0.69287   0.25488   0.24562   0.133419  
         H         H         0.60710   0.10368   0.25087   0.109386  
         H         H         0.60588   0.03797   0.23848   0.112851  
         H         H         0.44020   0.69511   0.25815   0.134500  
         H         H         0.50630   0.61205   0.23894   0.113566  
         H         H         0.57199   0.61329   0.23211   0.109837  
         H         H         0.25654   0.55955   0.24785   0.135649  
         H         H         0.10243   0.49043   0.24024   0.109009  
         H         H         0.03432   0.42502   0.21992   0.109629  
         H         H         0.30626   0.74216   0.27139   0.133375  
         H         H         0.38782   0.89585   0.24949   0.109505  
         H         H         0.38813   0.96201   0.25264   0.114565  
         C         C         0.29476   0.62700   0.75799   0.032154  
         C         C         0.33404   0.58934   0.75984   -0.226927           
         C         C         0.37097   0.59073   0.75744   0.174900  
         O         O         0.37819   0.55842   0.75290   -0.343116           
         C         C         0.42290   0.51030   0.74627   -0.097090           
         C         C         0.44390   0.48817   0.74624   0.065289  
         C         C         0.42298   0.44391   0.74837   -0.136085           
         C         C         0.37157   0.66538   0.75641   0.029659  
         C         C         0.40863   0.74250   0.74988   -0.237324           
         C         C         0.40736   0.77847   0.74968   0.173588  
         O         O         0.43934   0.81890   0.74544   -0.340726           
         C         C         0.48754   0.91235   0.74284   -0.101729           
         C         C         0.50994   0.95566   0.74112   0.065794  
         C         C         0.55356   0.97850   0.73598   -0.133487           
         C         C         0.33373   0.70410   0.75895   0.028804  
         C         C         0.25718   0.66486   0.76081   -0.225155           
         C         C         0.22097   0.62766   0.75826   0.174518  
         O         O         0.18089   0.61982   0.75863   -0.341101           
         C         C         0.08829   0.57532   0.76361   -0.111654           
         C         C         0.04463   0.55512   0.75793   0.072367  
         C         C         0.02273   0.57676   0.76203   -0.136817           
         C         C         0.70516   0.37232   0.75250   0.033172  
         C         C         0.66576   0.40979   0.75033   -0.230278           
         C         C         0.62830   0.40840   0.74771   0.174351  
         O         O         0.62067   0.44068   0.74966   -0.340532           
         C         C         0.57473   0.48873   0.74567   -0.097300           
         C         C         0.55370   0.51090   0.74501   0.070455  
         C         C         0.57444   0.55521   0.74087   -0.135843           
         C         C         0.62822   0.33370   0.75251   0.027661  
         C         C         0.59175   0.25645   0.76209   -0.236121           
         C         C         0.59330   0.22061   0.76234   0.175457  
         O         O         0.56132   0.18009   0.76429   -0.342011           
         C         C         0.51260   0.08705   0.75465   -0.104921           
         C         C         0.48975   0.04389   0.75094   0.066442  
         C         C         0.44614   0.02110   0.75616   -0.137202           
         C         C         0.66686   0.29520   0.75503   0.027194  
         C         C         0.74343   0.33470   0.75335   -0.224486           
         C         C         0.77893   0.37215   0.75007   0.179164  
         O         O         0.81877   0.38040   0.74631   -0.343372           
         C         C         0.90958   0.42581   0.72612   -0.113473           
         C         C         0.95272   0.44626   0.72685   0.070512  
         C         C         0.97418   0.42470   0.71880   -0.130873           
         C         C         0.62885   0.29483   0.75665   0.032799  
         C         C         0.58981   0.33374   0.74639   -0.224871           
         C         C         0.59068   0.37096   0.74373   0.179628  
         O         O         0.55797   0.37875   0.74000   -0.343289           
         C         C         0.51065   0.42367   0.75002   -0.105328           
         C         C         0.48830   0.44444   0.74971   0.069426  
         C         C         0.44438   0.42301   0.75089   -0.139613           
         C         C         0.66616   0.37202   0.75193   0.028655  
         C         C         0.74269   0.41040   0.74971   -0.231667           
         C         C         0.77845   0.40946   0.74713   0.172948  
         O         O         0.81767   0.44226   0.73870   -0.341588           
         C         C         0.91164   0.49072   0.73697   -0.099749           
         C         C         0.95528   0.51251   0.74153   0.067195  
         C         C         0.97981   0.55643   0.75279   -0.135744           
         C         C         0.70543   0.33432   0.75300   0.028738  
         C         C         0.66686   0.25736   0.75396   -0.233108           
         C         C         0.63017   0.22110   0.75718   0.174228  
         O         O         0.62227   0.18101   0.75309   -0.341596           
         C         C         0.57622   0.08688   0.74726   -0.105439           
         C         C         0.55467   0.04367   0.74331   0.068913  
         C         C         0.57494   0.02062   0.73696   -0.139174           
         C         C         0.37140   0.70427   0.75517   0.033043  
         C         C         0.40947   0.66535   0.75761   -0.227147           
         C         C         0.40832   0.62816   0.75784   0.180621  
         O         O         0.44050   0.62033   0.75695   -0.342288           
         C         C         0.48728   0.57522   0.74459   -0.110779           
         C         C         0.50951   0.55454   0.74336   0.072582  
         C         C         0.55324   0.57611   0.74000   -0.136110           
         C         C         0.33368   0.62713   0.75834   0.028477  
         C         C         0.25658   0.58913   0.75595   -0.229171           
         C         C         0.22072   0.59031   0.75676   0.171514  
         O         O         0.18067   0.55782   0.75855   -0.339867           
         C         C         0.08561   0.51038   0.74860   -0.098742           
         C         C         0.04171   0.48886   0.74078   0.067238  
         C         C         0.01688   0.44507   0.72593   -0.136191           
         C         C         0.29501   0.66506   0.76049   0.028277  
         C         C         0.33405   0.74209   0.76025   -0.231888           
         C         C         0.37068   0.77828   0.75516   0.173549  
         O         O         0.37871   0.81853   0.75700   -0.341216           
         C         C         0.42398   0.91270   0.75029   -0.104617           
         C         C         0.44505   0.95601   0.74865   0.071061  
         C         C         0.42472   0.97900   0.75497   -0.137700           
         C         C         0.44420   0.55363   0.74631   -0.222672           
         C         C         0.48781   0.51036   0.74547   0.006078  
         B         B         0.42127   0.57713   0.75230   0.582441  
         C         C         0.44477   0.89059   0.74781   -0.235663           
         C         C         0.48860   0.97791   0.74415   0.002682  
         B         B         0.42118   0.84327   0.75023   0.592834  
         C         C         0.10910   0.55343   0.75918   -0.227155           
         C         C         0.02077   0.51131   0.74536   0.002466  
         B         B         0.15636   0.57655   0.75965   0.586972  
         C         C         0.55369   0.44532   0.74810   -0.227285           
         C         C         0.50994   0.48864   0.74705   0.003055  
         B         B         0.57709   0.42192   0.74514   0.584715  
         C         C         0.55568   0.10886   0.75292   -0.233576           
         C         C         0.51092   0.02175   0.74563   0.005961  
         B         B         0.57955   0.15605   0.75700   0.593398  
         C         C         0.88878   0.44753   0.73161   -0.224003           
         C         C         0.97640   0.49013   0.73801   0.005400  
         B         B         0.84227   0.42385   0.73807   0.585499  
         H         H         0.30609   0.55966   0.76201   0.134705  
         H         H         0.38966   0.49338   0.74878   0.110688  
         H         H         0.38975   0.42720   0.75086   0.109209  
         H         H         0.43744   0.74399   0.74332   0.134320  
         H         H         0.50357   0.89543   0.73842   0.107924  
         H         H         0.56900   0.96148   0.72795   0.111174  
         H         H         0.25634   0.69297   0.76566   0.135136  
         H         H         0.10643   0.60869   0.77219   0.109364  
         H         H         0.04120   0.61002   0.77315   0.110523  
         H         H         0.69413   0.43939   0.75252   0.136316  
         H         H         0.60785   0.50561   0.74206   0.109780  
         H         H         0.60736   0.57189   0.73543   0.110460  
         H         H         0.56281   0.25481   0.76826   0.133290  
         H         H         0.49679   0.10383   0.76191   0.110309  
         H         H         0.43097   0.03814   0.76615   0.115100  
         H         H         0.74491   0.30655   0.75349   0.135266  
         H         H         0.89187   0.39233   0.72092   0.109355  
         H         H         0.95553   0.39149   0.70631   0.110962  
         H         H         0.56021   0.30540   0.74495   0.133950  
         H         H         0.49428   0.39004   0.75194   0.112049  
         H         H         0.42837   0.38940   0.75416   0.109363  
         H         H         0.74375   0.43991   0.74848   0.136605  
         H         H         0.89575   0.50760   0.74258   0.108810  
         H         H         0.96372   0.57318   0.75787   0.109988  
         H         H         0.69447   0.25650   0.74712   0.133279  
         H         H         0.60937   0.10363   0.74370   0.108227  
         H         H         0.60768   0.03762   0.72989   0.114597  
         H         H         0.43888   0.69372   0.75702   0.135229  
         H         H         0.50384   0.60881   0.74394   0.110406  
         H         H         0.56918   0.60977   0.73595   0.110037  
         H         H         0.25496   0.55965   0.75286   0.134891  
         H         H         0.10130   0.49336   0.74231   0.110127  
         H         H         0.03262   0.42850   0.71682   0.111446  
         H         H         0.30661   0.74317   0.76759   0.133196  
         H         H         0.39112   0.89603   0.75656   0.108953  
         H         H         0.39214   0.96192   0.76353   0.114872 

