
##########################################################################
#               Crystallographic Information Format file
#               Produced by PyCifRW module
#
#  This is a CIF file.  CIF has been adopted by the International
#  Union of Crystallography as the standard for data archiving and
#  transmission.
#
#  For information on this file format, follow the CIF links at
#  http://www.iucr.org
##########################################################################

data_image0

_cell_length_a                          22.3863
_cell_length_b                          22.5462
_cell_length_c                          8.1286
_cell_angle_alpha                       85.7566
_cell_angle_beta                        102.342
_cell_angle_gamma                       120.236
_symmetry_space_group_name_H-M          'P 1'
_space_group_name_Hall                  'P 1'
loop_
  _atom_site_type_symbol
  _atom_site_label
  _atom_site_fract_x
  _atom_site_fract_y
  _atom_site_fract_z
  _atom_site_charge
         C         C         0.14378   0.62834   0.23987   -0.101032           
         C         C         0.07151   0.59370   0.24494   0.070194  
         C         C         0.03236   0.62863   0.23614   -0.138594           
         H         H         0.17106   0.68353   0.22432   0.103307  
         H         H         0.06006   0.68413   0.22857   0.106989  
         C         C         0.37041   0.52024   0.24081   -0.097187           
         C         C         0.40529   0.48273   0.25137   0.069928  
         C         C         0.36966   0.40899   0.24891   -0.136898           
         H         H         0.31337   0.49270   0.22527   0.104028  
         H         H         0.31394   0.38108   0.25503   0.106630  
         C         C         0.48291   0.85907   0.24359   -0.101105           
         C         C         0.51902   0.93140   0.24160   0.070261  
         C         C         0.59203   0.97157   0.22755   -0.138338           
         H         H         0.51126   0.83221   0.23309   0.106183  
         H         H         0.62106   0.94492   0.22403   0.108955  
         C         C         0.85243   0.37555   0.26274   -0.099046           
         C         C         0.92537   0.41046   0.26746   0.069935  
         C         C         0.96518   0.37590   0.28239   -0.135359           
         H         H         0.82400   0.31977   0.26687   0.104995  
         H         H         0.93793   0.32028   0.29247   0.107907  
         C         C         0.62523   0.48415   0.25504   -0.097885           
         C         C         0.59093   0.52146   0.26053   0.069990  
         C         C         0.62682   0.59516   0.26935   -0.135599           
         H         H         0.68190   0.51097   0.26206   0.105302  
         H         H         0.68274   0.62326   0.26815   0.106002  
         C         C         0.51321   0.14612   0.26010   -0.101997           
         C         C         0.47774   0.07409   0.25793   0.069936  
         C         C         0.40491   0.03425   0.27119   -0.139415           
         H         H         0.48400   0.17225   0.26911   0.105861  
         H         H         0.37649   0.06135   0.27571   0.107649  
         C         C         0.62181   0.14996   0.24009   -0.099121           
         C         C         0.58840   0.07803   0.23308   0.069336  
         C         C         0.62484   0.04161   0.22008   -0.136083           
         H         H         0.67774   0.18013   0.23615   0.105563  
         H         H         0.67945   0.07077   0.20399   0.109849  
         C         C         0.51508   0.37629   0.23164   -0.100346           
         C         C         0.47861   0.41082   0.24095   0.068486  
         C         C         0.40477   0.37491   0.24174   -0.134033           
         H         H         0.48691   0.32050   0.21663   0.104513  
         H         H         0.37832   0.31903   0.23911   0.105648  
         C         C         0.85122   0.48245   0.24187   -0.099610           
         C         C         0.92401   0.51973   0.24566   0.069024  
         C         C         0.96163   0.59312   0.23775   -0.139605           
         H         H         0.82298   0.51064   0.22808   0.104711  
         H         H         0.93225   0.61964   0.23466   0.106992  
         C         C         0.37611   0.85659   0.27430   -0.101315           
         C         C         0.40905   0.92840   0.26910   0.069126  
         C         C         0.37208   0.96437   0.27927   -0.136882           
         H         H         0.32177   0.82834   0.29158   0.105891  
         H         H         0.31724   0.93484   0.29314   0.109928  
         C         C         0.48033   0.62820   0.26729   -0.099167           
         C         C         0.51732   0.59324   0.27054   0.071977  
         C         C         0.59148   0.62955   0.27521   -0.140457           
         H         H         0.50846   0.68405   0.27712   0.105874  
         H         H         0.61799   0.68533   0.27925   0.107367  
         C         C         0.14610   0.52220   0.27126   -0.095905           
         C         C         0.07364   0.48493   0.27316   0.069420  
         C         C         0.03603   0.41171   0.28596   -0.137418           
         H         H         0.17488   0.49454   0.28564   0.103932  
         H         H         0.06591   0.38527   0.29704   0.106868  
         C         C         0.18187   0.59361   0.25343   -0.247159           
         C         C         0.03566   0.52083   0.26024   0.005531  
         B         B         0.26127   0.63353   0.24743   0.726407  
         C         C         0.40678   0.59238   0.24694   -0.252412           
         C         C         0.47984   0.51985   0.26009   0.004916  
         B         B         0.36785   0.63315   0.23700   0.717704  
         C         C         0.41158   0.82109   0.25976   -0.245536           
         C         C         0.48125   0.96645   0.25194   0.004282  
         B         B         0.37121   0.74125   0.25873   0.722190  
         C         C         0.81474   0.41048   0.25279   -0.246937           
         C         C         0.96196   0.48376   0.25878   0.007053  
         B         B         0.73465   0.37075   0.25378   0.719894  
         C         C         0.58795   0.41198   0.24068   -0.248106           
         C         C         0.51663   0.48422   0.25487   0.007075  
         B         B         0.62691   0.37162   0.24637   0.723662  
         C         C         0.58554   0.18465   0.25634   -0.250292           
         C         C         0.51577   0.03936   0.24717   0.005305  
         B         B         0.62577   0.26410   0.26470   0.721499  
         O         O         0.29503   0.59850   0.22302   -0.568525           
         O         O         0.40544   0.70478   0.24635   -0.570065           
         O         O         0.30016   0.70466   0.26787   -0.571845           
         O         O         0.69773   0.40583   0.23779   -0.570087           
         O         O         0.59139   0.30093   0.26484   -0.567638           
         O         O         0.69796   0.29985   0.26673   -0.571854           
         C         C         0.14662   0.62043   0.72968   -0.102788           
         C         C         0.07436   0.58634   0.73219   0.070276  
         C         C         0.03627   0.62219   0.72764   -0.134591           
         H         H         0.17532   0.67602   0.72022   0.104693  
         H         H         0.06460   0.67752   0.71536   0.106093  
         C         C         0.37669   0.51950   0.73520   -0.096290           
         C         C         0.41054   0.48158   0.73512   0.068899  
         C         C         0.37255   0.40810   0.72028   -0.134900           
         H         H         0.31998   0.49254   0.72584   0.104708  
         H         H         0.31586   0.38219   0.71046   0.106246  
         C         C         0.48295   0.85274   0.73972   -0.099731           
         C         C         0.51972   0.92487   0.73391   0.067669  
         C         C         0.59171   0.96354   0.71248   -0.139315           
         H         H         0.50958   0.82411   0.73214   0.105821  
         H         H         0.61875   0.93625   0.69697   0.109684  
         C         C         0.85459   0.37089   0.75842   -0.101430           
         C         C         0.92711   0.40452   0.75953   0.070626  
         C         C         0.96562   0.36882   0.76937   -0.137439           
         H         H         0.82433   0.31506   0.75697   0.105635  
         H         H         0.93769   0.31345   0.78328   0.106339  
         C         C         0.62984   0.47798   0.76990   -0.095985           
         C         C         0.59591   0.51606   0.76685   0.069939  
         C         C         0.63364   0.58962   0.78110   -0.136900           
         H         H         0.68687   0.50434   0.78390   0.104667  
         H         H         0.69037   0.61593   0.78916   0.106206  
         C         C         0.52090   0.14209   0.77949   -0.097299           
         C         C         0.48381   0.06995   0.77203   0.067529  
         C         C         0.41117   0.03117   0.78734   -0.136977           
         H         H         0.49275   0.16852   0.79599   0.105725  
         H         H         0.38511   0.05885   0.80891   0.109589  
         C         C         0.62657   0.14416   0.73954   -0.102536           
         C         C         0.59212   0.07189   0.73196   0.069386  
         C         C         0.62611   0.03421   0.70857   -0.137231           
         H         H         0.68129   0.17363   0.72482   0.106868  
         H         H         0.67983   0.06184   0.68730   0.109065  
         C         C         0.51847   0.37109   0.74052   -0.101718           
         C         C         0.48168   0.40666   0.73511   0.072615  
         C         C         0.40658   0.37209   0.71855   -0.138929           
         H         H         0.49025   0.31519   0.73176   0.104997  
         H         H         0.37715   0.31640   0.70488   0.107390  
         C         C         0.85681   0.47947   0.75647   -0.094798           
         C         C         0.92880   0.51520   0.75073   0.068409  
         C         C         0.96705   0.58832   0.73993   -0.137131           
         H         H         0.82979   0.50841   0.75698   0.104753  
         H         H         0.93818   0.61520   0.74186   0.107120  
         C         C         0.37571   0.85178   0.75782   -0.097077           
         C         C         0.41052   0.92382   0.75920   0.067443  
         C         C         0.37578   0.96112   0.77773   -0.135403           
         H         H         0.31966   0.82328   0.76236   0.105018  
         H         H         0.32058   0.93218   0.78807   0.107999  
         C         C         0.48785   0.62628   0.76686   -0.097980           
         C         C         0.52447   0.59083   0.76726   0.069160  
         C         C         0.59951   0.62535   0.78279   -0.134944           
         H         H         0.51674   0.68210   0.78156   0.104273  
         H         H         0.62853   0.68114   0.79561   0.106088  
         C         C         0.14714   0.51311   0.74980   -0.097363           
         C         C         0.07471   0.47638   0.75262   0.068305  
         C         C         0.03599   0.40316   0.76721   -0.138363           
         H         H         0.17567   0.48536   0.75665   0.104273  
         H         H         0.06453   0.37530   0.77934   0.105218  
         C         C         0.18393   0.58511   0.74060   -0.245013           
         C         C         0.03770   0.51332   0.74463   0.007201  
         B         B         0.26432   0.62691   0.74377   0.720050  
         C         C         0.41435   0.59151   0.74968   -0.249197           
         C         C         0.48528   0.51742   0.75016   0.006493  
         B         B         0.37412   0.63063   0.74601   0.718768  
         C         C         0.41116   0.81568   0.75193   -0.251074           
         C         C         0.48352   0.96108   0.74738   0.006391  
         B         B         0.37199   0.73630   0.75629   0.720162  
         C         C         0.81885   0.40740   0.75680   -0.250300           
         C         C         0.96478   0.47771   0.75107   0.006265  
         B         B         0.73889   0.36743   0.75515   0.717927  
         C         C         0.59195   0.40599   0.75809   -0.251001           
         C         C         0.52094   0.48013   0.75031   0.005406  
         B         B         0.63146   0.36629   0.76396   0.720822  
         C         C         0.59209   0.17978   0.76392   -0.249306           
         C         C         0.51983   0.03433   0.74989   0.003939  
         B         B         0.63164   0.25939   0.76558   0.719569  
         O         O         0.30125   0.59362   0.73234   -0.567570           
         O         O         0.40904   0.70194   0.75490   -0.568218           
         O         O         0.30045   0.69860   0.76189   -0.569582           
         O         O         0.70250   0.40224   0.75500   -0.567521           
         O         O         0.59691   0.29535   0.77641   -0.567299           
         O         O         0.70249   0.29599   0.75420   -0.569742 

