
##########################################################################
#               Crystallographic Information Format file
#               Produced by PyCifRW module
#
#  This is a CIF file.  CIF has been adopted by the International
#  Union of Crystallography as the standard for data archiving and
#  transmission.
#
#  For information on this file format, follow the CIF links at
#  http://www.iucr.org
##########################################################################

data_image0

_cell_length_a                          18.3315
_cell_length_b                          18.3386
_cell_length_c                          8.01808
_cell_angle_alpha                       55.9391
_cell_angle_beta                        119.347
_cell_angle_gamma                       120.054
_symmetry_space_group_name_H-M          'P 1'
_space_group_name_Hall                  'P 1'
loop_
  _atom_site_type_symbol
  _atom_site_label
  _atom_site_fract_x
  _atom_site_fract_y
  _atom_site_fract_z
  _atom_site_charge
         C         C         0.37643   0.60135   0.23530   0.374710  
         C         C         0.41584   0.54526   0.24563   0.003980  
         C         C         0.40144   0.39857   0.28049   -0.126661           
         C         C         0.50091   0.58257   0.23152   -0.139762           
         C         C         0.36619   0.45183   0.27178   -0.107335           
         N         N         0.29189   0.56336   0.23692   -0.408697           
         C         C         0.53888   0.52900   0.24079   0.074409  
         H         H         0.36373   0.32724   0.29977   0.111408  
         H         H         0.53790   0.65409   0.21113   0.114999  
         H         H         0.30008   0.42460   0.28383   0.112369  
         C         C         0.39017   0.73367   0.22780   0.370884  
         C         C         0.44626   0.82375   0.23980   0.008134  
         C         C         0.59111   0.93781   0.28041   -0.131697           
         C         C         0.41061   0.87765   0.23067   -0.145257           
         C         C         0.53795   0.85431   0.26716   -0.116410           
         N         N         0.42806   0.68647   0.22991   -0.405717           
         C         C         0.46369   0.96346   0.24459   0.078532  
         H         H         0.66115   0.96180   0.29941   0.110939  
         H         H         0.34064   0.85243   0.21331   0.114175  
         H         H         0.56390   0.81017   0.27571   0.111232  
         C         C         0.25954   0.61679   0.23113   0.373184  
         C         C         0.16837   0.57736   0.24110   0.008296  
         C         C         0.04817   0.59404   0.25448   -0.130212           
         C         C         0.11751   0.48865   0.25137   -0.144558           
         C         C         0.13267   0.63005   0.24289   -0.107077           
         N         N         0.30550   0.70276   0.22346   -0.411304           
         C         C         0.03027   0.44997   0.26240   0.070561  
         H         H         0.02121   0.63415   0.25770   0.113752  
         H         H         0.14555   0.44919   0.24950   0.114241  
         H         H         0.17434   0.69885   0.23672   0.111633  
         C         C         0.64728   0.36071   0.26693   0.372545  
         C         C         0.60993   0.41844   0.25711   0.004319  
         C         C         0.62588   0.56443   0.22864   -0.129312           
         C         C         0.52454   0.38225   0.26852   -0.137016           
         C         C         0.66103   0.51075   0.23785   -0.102994           
         N         N         0.73198   0.39641   0.26898   -0.402917           
         C         C         0.48769   0.43537   0.26303   0.075295  
         H         H         0.66488   0.63499   0.21408   0.112743  
         H         H         0.48636   0.31137   0.28439   0.111988  
         H         H         0.72795   0.53705   0.23145   0.110435  
         C         C         0.63046   0.22636   0.27729   0.376581  
         C         C         0.57366   0.13540   0.26952   0.007818  
         C         C         0.42896   0.02032   0.23487   -0.128078           
         C         C         0.60908   0.08110   0.27971   -0.153698           
         C         C         0.48229   0.10386   0.24763   -0.106295           
         N         N         0.59353   0.27640   0.26833   -0.405533           
         C         C         0.55599   0.99487   0.26807   0.076821  
         H         H         0.35928   0.99604   0.21931   0.111363  
         H         H         0.67884   0.10636   0.29533   0.112810  
         H         H         0.45678   0.14725   0.24330   0.112295  
         C         C         0.76314   0.34068   0.27932   0.376756  
         C         C         0.85505   0.37771   0.27629   -0.000298           
         C         C         0.97630   0.35959   0.27110   -0.128964           
         C         C         0.90687   0.46572   0.27067   -0.142276           
         C         C         0.89097   0.32436   0.27769   -0.115046           
         N         N         0.71582   0.25457   0.28860   -0.419099           
         C         C         0.99432   0.50376   0.26230   0.069019  
         H         H         0.00337   0.31907   0.26962   0.110101  
         H         H         0.87874   0.50550   0.27122   0.115382  
         H         H         0.84876   0.25613   0.28044   0.112192  
         C         C         0.35298   0.63981   0.73057   0.370761  
         C         C         0.39049   0.58226   0.74016   0.004886  
         C         C         0.37492   0.43632   0.76928   -0.128971           
         C         C         0.47587   0.61854   0.72852   -0.137416           
         C         C         0.33964   0.48993   0.75987   -0.102699           
         N         N         0.26846   0.60398   0.73016   -0.402573           
         C         C         0.51285   0.56559   0.73394   0.075086  
         H         H         0.33618   0.36566   0.78442   0.112640  
         H         H         0.51391   0.68937   0.71260   0.111923  
         H         H         0.27280   0.46345   0.76666   0.110701  
         C         C         0.36973   0.77425   0.71935   0.373342  
         C         C         0.42635   0.86538   0.72589   0.008930  
         C         C         0.57106   0.98058   0.75967   -0.131548           
         C         C         0.39092   0.91975   0.71540   -0.151519           
         C         C         0.51765   0.89699   0.74729   -0.105222           
         N         N         0.40657   0.72439   0.72751   -0.402869           
         C         C         0.44403   0.00613   0.72633   0.075225  
         H         H         0.64072   0.00511   0.77465   0.112506  
         H         H         0.32114   0.89436   0.69985   0.113089  
         H         H         0.54322   0.85357   0.75209   0.112187  
         C         C         0.23737   0.65970   0.72016   0.375275  
         C         C         0.14563   0.62290   0.72415   0.000933  
         C         C         0.02455   0.64142   0.72948   -0.129833           
         C         C         0.09375   0.53484   0.73071   -0.143525           
         C         C         0.10980   0.67650   0.72232   -0.118254           
         N         N         0.28465   0.74592   0.71005   -0.417099           
         C         C         0.00634   0.49712   0.73876   0.067908  
         H         H         0.99761   0.68220   0.73049   0.110729  
         H         H         0.12173   0.49479   0.73062   0.115723  
         H         H         0.15192   0.74488   0.71878   0.115163  
         C         C         0.62377   0.39920   0.76185   0.373527  
         C         C         0.58456   0.45553   0.75117   0.003099  
         C         C         0.59901   0.60238   0.71596   -0.124491           
         C         C         0.49966   0.41840   0.76561   -0.138990           
         C         C         0.63411   0.54902   0.72444   -0.106188           
         N         N         0.70843   0.43710   0.76144   -0.408178           
         C         C         0.46179   0.47196   0.75649   0.074004  
         H         H         0.63697   0.67369   0.69629   0.109443  
         H         H         0.46261   0.34691   0.78630   0.114503  
         H         H         0.70001   0.57612   0.71163   0.111142  
         C         C         0.61008   0.26690   0.76902   0.371439  
         C         C         0.55386   0.17697   0.75589   0.006044  
         C         C         0.40886   0.06326   0.71376   -0.132350           
         C         C         0.58947   0.12316   0.76441   -0.142484           
         C         C         0.46210   0.14659   0.72791   -0.113888           
         N         N         0.57205   0.31411   0.76661   -0.404356           
         C         C         0.53634   0.03743   0.75002   0.077488  
         H         H         0.33875   0.03946   0.69417   0.110793  
         H         H         0.65944   0.14819   0.78208   0.114004  
         H         H         0.43616   0.19077   0.71946   0.110458  
         C         C         0.74093   0.38372   0.76765   0.373367  
         C         C         0.83230   0.42335   0.75879   0.008423  
         C         C         0.95265   0.40698   0.74582   -0.128130           
         C         C         0.88302   0.51207   0.74911   -0.144767           
         C         C         0.86806   0.37085   0.75665   -0.108038           
         N         N         0.69493   0.29784   0.77446   -0.412267           
         C         C         0.97040   0.55100   0.73844   0.071978  
         H         H         0.97991   0.36723   0.74230   0.112900  
         H         H         0.85468   0.55119   0.75130   0.114087  
         H         H         0.82635   0.30221   0.76183   0.112265 

