
##########################################################################
#               Crystallographic Information Format file
#               Produced by PyCifRW module
#
#  This is a CIF file.  CIF has been adopted by the International
#  Union of Crystallography as the standard for data archiving and
#  transmission.
#
#  For information on this file format, follow the CIF links at
#  http://www.iucr.org
##########################################################################

data_image0

_cell_length_a                          23.1508
_cell_length_b                          23.1245
_cell_length_c                          7.94295
_cell_angle_alpha                       89.0947
_cell_angle_beta                        121.398
_cell_angle_gamma                       90.3194
_symmetry_space_group_name_H-M          'P 1'
_space_group_name_Hall                  'P 1'
loop_
  _atom_site_type_symbol
  _atom_site_label
  _atom_site_fract_x
  _atom_site_fract_y
  _atom_site_fract_z
  _atom_site_charge
         C         C         0.44868   0.03272   0.25071   -0.057380           
         C         C         0.52819   0.22122   0.23676   0.168445  
         C         C         0.43388   0.26928   0.23807   -0.189541           
         C         C         0.46577   0.32110   0.23976   -0.040804           
         C         C         0.44890   0.38182   0.24482   0.344896  
         O         O         0.44873   0.16290   0.23614   -0.338736           
         H         H         0.40910   0.05680   0.25433   0.105758  
         H         H         0.38745   0.26793   0.24074   0.146564  
         C         C         0.96122   0.44797   0.22014   -0.062445           
         C         C         0.77863   0.53271   0.24420   0.171481  
         C         C         0.72684   0.43942   0.24156   -0.179045           
         C         C         0.67599   0.47251   0.24015   -0.046837           
         C         C         0.61626   0.45371   0.24049   0.335199  
         O         O         0.83348   0.45150   0.24151   -0.339308           
         H         H         0.93421   0.40787   0.20520   0.110780  
         H         H         0.72568   0.39245   0.24083   0.154972  
         N         N         0.39368   0.39662   0.24797   -0.389428           
         C         C         0.55167   0.97100   0.24878   -0.056689           
         C         C         0.46835   0.78323   0.25973   0.169080  
         C         C         0.56185   0.73310   0.26008   -0.188904           
         C         C         0.52918   0.68206   0.26057   -0.042894           
         C         C         0.54590   0.62132   0.25735   0.344617  
         O         O         0.54889   0.83978   0.25856   -0.338733           
         H         H         0.59120   0.94694   0.24474   0.105524  
         H         H         0.60822   0.73308   0.25681   0.146596  
         C         C         0.02966   0.55138   0.25655   -0.064889           
         C         C         0.21456   0.46863   0.24338   0.170764  
         C         C         0.26746   0.56278   0.26148   -0.180242           
         C         C         0.31911   0.53071   0.26369   -0.045946           
         C         C         0.37929   0.55001   0.26647   0.332371  
         O         O         0.15915   0.54871   0.24985   -0.339156           
         H         H         0.05663   0.59151   0.27134   0.110881  
         H         H         0.26853   0.60967   0.26799   0.155042  
         N         N         0.60099   0.60685   0.25242   -0.389018           
         C         C         0.55195   0.03122   0.24325   -0.058142           
         C         C         0.46736   0.21988   0.23657   0.170276  
         C         C         0.56020   0.27227   0.23839   -0.186476           
         C         C         0.52691   0.32228   0.24071   -0.046329           
         C         C         0.54371   0.38339   0.24334   0.347198  
         O         O         0.54847   0.16512   0.23480   -0.337374           
         H         H         0.59196   0.05389   0.23612   0.106025  
         H         H         0.60670   0.27370   0.23608   0.145969  
         C         C         0.02147   0.44717   0.22127   -0.057390           
         C         C         0.21594   0.52970   0.25200   0.170846  
         C         C         0.26503   0.43634   0.24567   -0.180117           
         C         C         0.31799   0.46920   0.25665   -0.046096           
         C         C         0.37777   0.45083   0.25699   0.333546  
         O         O         0.15663   0.44877   0.23440   -0.337379           
         H         H         0.04161   0.40651   0.20571   0.109781  
         H         H         0.26441   0.38943   0.24012   0.155208  
         N         N         0.59925   0.39926   0.24274   -0.389558           
         C         C         0.44842   0.97253   0.25638   -0.057303           
         C         C         0.52924   0.78325   0.26010   0.170780  
         C         C         0.43567   0.73276   0.26063   -0.189474           
         C         C         0.46821   0.68177   0.26072   -0.043939           
         C         C         0.45143   0.62054   0.26154   0.344314  
         O         O         0.44905   0.83995   0.25935   -0.339296           
         H         H         0.40860   0.94969   0.26404   0.105605  
         H         H         0.38908   0.73251   0.26250   0.146153  
         C         C         0.96934   0.55215   0.25501   -0.055803           
         C         C         0.77759   0.47154   0.24272   0.173086  
         C         C         0.72905   0.56601   0.24391   -0.177051           
         C         C         0.67679   0.53408   0.24152   -0.045407           
         C         C         0.61746   0.55285   0.24410   0.333818  
         O         O         0.83530   0.55160   0.24390   -0.338875           
         H         H         0.94900   0.59284   0.26935   0.110006  
         H         H         0.72986   0.61300   0.24352   0.154662  
         N         N         0.39626   0.60457   0.26432   -0.388405           
         C         C         0.50034   0.06311   0.24363   -0.225723           
         B         B         0.49948   0.12951   0.23737   0.586069  
         N         N         0.49637   0.41815   0.24615   -0.459992           
         C         C         0.49983   0.94067   0.25496   -0.225337           
         B         B         0.49911   0.87432   0.25775   0.587155  
         N         N         0.49870   0.58537   0.25893   -0.458706           
         C         C         0.93427   0.50046   0.23770   -0.213852           
         B         B         0.86854   0.50127   0.24107   0.579178  
         N         N         0.58309   0.50323   0.24005   -0.337641           
         H         H         0.45635   0.50081   0.26374   0.275395  
         C         C         0.05667   0.49886   0.23948   -0.213219           
         B         B         0.12310   0.49851   0.24000   0.579206  
         N         N         0.41253   0.50061   0.26540   -0.335573           
         H         H         0.53964   0.50361   0.24368   0.277747  
         C         C         0.45010   0.02828   0.75143   -0.056542           
         C         C         0.52785   0.21868   0.73580   0.169301  
         C         C         0.43606   0.26817   0.74602   -0.189054           
         C         C         0.46783   0.31954   0.74257   -0.041074           
         C         C         0.45175   0.38060   0.74672   0.344044  
         O         O         0.44991   0.16120   0.74724   -0.338809           
         H         H         0.40907   0.05039   0.75345   0.105938  
         H         H         0.39060   0.26782   0.75388   0.145599  
         C         C         0.96780   0.44878   0.72514   -0.063296           
         C         C         0.78274   0.52918   0.74693   0.171180  
         C         C         0.73071   0.43543   0.73942   -0.179263           
         C         C         0.67946   0.46808   0.73750   -0.046464           
         C         C         0.61913   0.44966   0.73530   0.332174  
         O         O         0.83787   0.44861   0.74225   -0.339893           
         H         H         0.94282   0.40767   0.71281   0.110556  
         H         H         0.72937   0.38850   0.73587   0.154549  
         N         N         0.39690   0.39635   0.75086   -0.388111           
         C         C         0.55646   0.97101   0.75321   -0.058330           
         C         C         0.47775   0.78094   0.76823   0.169204  
         C         C         0.56796   0.73065   0.75246   -0.189596           
         C         C         0.53589   0.67975   0.75812   -0.043030           
         C         C         0.55144   0.61876   0.75358   0.344677  
         O         O         0.55527   0.83767   0.75187   -0.338762           
         H         H         0.59740   0.94878   0.75114   0.106178  
         H         H         0.61289   0.73050   0.74189   0.145866  
         C         C         0.03144   0.55465   0.75648   -0.064117           
         C         C         0.21801   0.47262   0.74309   0.172516  
         C         C         0.27325   0.56538   0.76282   -0.178222           
         C         C         0.32405   0.53195   0.76452   -0.047941           
         C         C         0.38494   0.54998   0.76930   0.334376  
         O         O         0.16404   0.55389   0.75017   -0.337991           
         H         H         0.05634   0.59582   0.76921   0.110454  
         H         H         0.27605   0.61225   0.77133   0.154131  
         N         N         0.60586   0.60322   0.74728   -0.388604           
         C         C         0.55410   0.03123   0.74816   -0.056907           
         C         C         0.46835   0.21812   0.74280   0.168896  
         C         C         0.55973   0.26921   0.73221   -0.188612           
         C         C         0.52791   0.31978   0.73761   -0.045529           
         C         C         0.54557   0.38060   0.73881   0.346226  
         O         O         0.54731   0.16239   0.73332   -0.336945           
         H         H         0.59331   0.05585   0.74271   0.105673  
         H         H         0.60510   0.26984   0.72388   0.145722  
         C         C         0.02795   0.45039   0.72563   -0.055942           
         C         C         0.22061   0.53371   0.75220   0.172976  
         C         C         0.26776   0.43899   0.74574   -0.180205           
         C         C         0.32169   0.47045   0.75704   -0.046220           
         C         C         0.38153   0.45083   0.75896   0.335853  
         O         O         0.15986   0.45395   0.73463   -0.338702           
         H         H         0.04995   0.41048   0.71281   0.109945  
         H         H         0.26592   0.39203   0.74158   0.155293  
         N         N         0.60117   0.39547   0.73667   -0.388455           
         C         C         0.45246   0.96807   0.75642   -0.057335           
         C         C         0.53653   0.78098   0.75743   0.168782  
         C         C         0.44550   0.73082   0.77295   -0.187102           
         C         C         0.47638   0.67987   0.76600   -0.043649           
         C         C         0.45856   0.61907   0.76574   0.346713  
         O         O         0.45932   0.83737   0.77311   -0.337495           
         H         H         0.41313   0.94351   0.76140   0.105959  
         H         H         0.40051   0.73095   0.78312   0.145570  
         C         C         0.97123   0.55305   0.75573   -0.056303           
         C         C         0.78169   0.46802   0.74332   0.170467  
         C         C         0.73279   0.56198   0.74546   -0.178926           
         C         C         0.68056   0.52958   0.74024   -0.047717           
         C         C         0.62115   0.54877   0.74011   0.332906  
         O         O         0.83955   0.54868   0.74921   -0.338525           
         H         H         0.94910   0.59282   0.76907   0.109626  
         H         H         0.73295   0.60894   0.74587   0.155240  
         N         N         0.40332   0.60418   0.76970   -0.386876           
         C         C         0.50091   0.06090   0.74719   -0.226190           
         B         B         0.49920   0.12732   0.74241   0.586174  
         N         N         0.49923   0.41613   0.74436   -0.459043           
         C         C         0.50563   0.93839   0.75729   -0.225935           
         B         B         0.50706   0.87201   0.76090   0.587064  
         N         N         0.50437   0.58332   0.75827   -0.460477           
         C         C         0.93857   0.50006   0.74088   -0.213686           
         B         B         0.87300   0.49877   0.74506   0.579147  
         N         N         0.58615   0.49947   0.73430   -0.334862           
         H         H         0.46150   0.49954   0.76863   0.276565  
         C         C         0.06080   0.50334   0.74106   -0.212874           
         B         B         0.12720   0.50417   0.74097   0.577751  
         N         N         0.41732   0.50003   0.76834   -0.337057           
         H         H         0.54230   0.49972   0.73588   0.276832 

