
##########################################################################
#               Crystallographic Information Format file
#               Produced by PyCifRW module
#
#  This is a CIF file.  CIF has been adopted by the International
#  Union of Crystallography as the standard for data archiving and
#  transmission.
#
#  For information on this file format, follow the CIF links at
#  http://www.iucr.org
##########################################################################

data_image0

_cell_length_a                          22.4991
_cell_length_b                          22.5416
_cell_length_c                          8.47436
_cell_angle_alpha                       88.6882
_cell_angle_beta                        117.538
_cell_angle_gamma                       120.176
_symmetry_space_group_name_H-M          'P 1'
_space_group_name_Hall                  'P 1'
loop_
  _atom_site_type_symbol
  _atom_site_label
  _atom_site_fract_x
  _atom_site_fract_y
  _atom_site_fract_z
  _atom_site_charge
         C         C         0.57167   0.53544   0.72522   0.080385  
         C         C         0.53832   0.46500   0.73853   -0.178749           
         C         C         0.46615   0.42700   0.73820   0.073265  
         C         C         0.42943   0.46262   0.73427   -0.184108           
         C         C         0.46184   0.53377   0.72623   0.068089  
         C         C         0.53158   0.56837   0.71553   -0.179219           
         H         H         0.57003   0.43952   0.75423   0.101406  
         H         H         0.37472   0.43421   0.73884   0.100541  
         H         H         0.55432   0.62146   0.69534   0.101413  
         C         C         0.10148   0.80015   0.76092   0.080838  
         C         C         0.13448   0.76307   0.74795   -0.176926           
         C         C         0.20408   0.79586   0.73726   0.073332  
         C         C         0.23967   0.86775   0.73529   -0.187583           
         C         C         0.20868   0.90693   0.74829   0.068302  
         C         C         0.14081   0.87256   0.76576   -0.181902           
         H         H         0.10363   0.70666   0.73967   0.099891  
         H         H         0.29159   0.89340   0.71969   0.101539  
         H         H         0.11899   0.90307   0.78745   0.101651  
         C         C         0.02569   0.76323   0.76190   0.064970  
         C         C         0.99658   0.69752   0.80497   -0.126246           
         C         C         0.90538   0.75549   0.70834   -0.132198           
         H         H         0.03283   0.67516   0.84990   0.098139  
         C         C         0.97803   0.79125   0.71350   -0.126016           
         C         C         0.92323   0.66111   0.79640   -0.130542           
         H         H         0.99677   0.84068   0.67291   0.102146  
         C         C         0.87540   0.68900   0.74713   0.064765  
         C         C         0.79751   0.65005   0.73735   0.066237  
         C         C         0.75059   0.57508   0.69303   -0.131009           
         C         C         0.69495   0.64931   0.77005   -0.128334           
         H         H         0.77067   0.54529   0.65781   0.103171  
         C         C         0.76721   0.68605   0.77341   -0.132461           
         C         C         0.67760   0.53826   0.68635   -0.133985           
         H         H         0.80241   0.74403   0.81111   0.098353  
         C         C         0.64799   0.57432   0.72613   0.067768  
         H         H         0.64229   0.48028   0.64591   0.103799  
         H         H         0.90358   0.61114   0.83423   0.101897  
         H         H         0.67607   0.67964   0.80841   0.102041  
         H         H         0.86961   0.77828   0.66670   0.098005  
         C         C         0.23739   0.75516   0.72322   0.057791  
         C         C         0.21559   0.68994   0.76982   -0.133609           
         C         C         0.32661   0.74317   0.65798   -0.133455           
         H         H         0.17477   0.66921   0.82121   0.098196  
         C         C         0.29305   0.78002   0.66473   -0.131564           
         C         C         0.24863   0.65268   0.76200   -0.133692           
         H         H         0.30905   0.82815   0.61837   0.101766  
         C         C         0.30590   0.67875   0.70829   0.050177  
         C         C         0.34458   0.64159   0.71062   0.063448  
         C         C         0.30689   0.56777   0.69149   -0.130523           
         C         C         0.46090   0.64482   0.74904   -0.125238           
         H         H         0.24645   0.53632   0.66894   0.105011  
         C         C         0.42286   0.67910   0.74028   -0.131068           
         C         C         0.34481   0.53356   0.69845   -0.128552           
         H         H         0.45519   0.73655   0.76041   0.105051  
         C         C         0.42271   0.57071   0.72573   0.062155  
         H         H         0.31215   0.47631   0.67992   0.104341  
         H         H         0.23245   0.60421   0.80713   0.103212  
         H         H         0.52192   0.67676   0.77567   0.103181  
         H         H         0.36757   0.76360   0.60686   0.097460  
         C         C         0.24636   0.98252   0.74435   0.063529  
         C         C         0.32492   0.02405   0.77623   -0.131744           
         C         C         0.24212   0.08877   0.71624   -0.129115           
         H         H         0.35932   0.00035   0.80395   0.104813  
         C         C         0.20580   0.01699   0.71260   -0.127246           
         C         C         0.36105   0.09566   0.77782   -0.128286           
         H         H         0.14442   0.98716   0.68379   0.103278  
         C         C         0.32082   0.13015   0.74912   0.061989  
         C         C         0.35860   0.20578   0.74920   0.050134  
         C         C         0.41481   0.23743   0.69242   -0.135081           
         C         C         0.37439   0.32003   0.80217   -0.133559           
         H         H         0.42868   0.20507   0.64150   0.102961  
         C         C         0.33910   0.24880   0.80370   -0.133129           
         C         C         0.44952   0.30853   0.68955   -0.132481           
         H         H         0.29815   0.22704   0.85485   0.096986  
         C         C         0.43026   0.35174   0.74444   0.058280  
         H         H         0.48964   0.32980   0.63621   0.096286  
         H         H         0.42230   0.12591   0.80534   0.105002  
         H         H         0.36015   0.35200   0.85296   0.102841  
         H         H         0.20848   0.11315   0.69025   0.105776  
         C         C         0.56865   0.53574   0.22535   0.081216  
         C         C         0.53291   0.46465   0.23338   -0.177841           
         C         C         0.46182   0.42816   0.23812   0.064225  
         C         C         0.42638   0.46505   0.23382   -0.184413           
         C         C         0.46018   0.53624   0.22645   0.076981  
         C         C         0.53113   0.57050   0.22178   -0.179028           
         H         H         0.56157   0.43741   0.23669   0.097736  
         H         H         0.37150   0.43819   0.23739   0.099207  
         H         H         0.55783   0.62552   0.21614   0.101486  
         C         C         0.09826   0.79904   0.25779   0.079714  
         C         C         0.13218   0.76288   0.24446   -0.176066           
         C         C         0.20092   0.79654   0.23002   0.067017  
         C         C         0.23629   0.86876   0.23147   -0.187199           
         C         C         0.20475   0.90712   0.24621   0.073508  
         C         C         0.13578   0.87116   0.25950   -0.176188           
         H         H         0.10367   0.70710   0.24303   0.098520  
         H         H         0.28866   0.89555   0.21763   0.101258  
         H         H         0.11089   0.90010   0.27195   0.100593  
         C         C         0.02331   0.76173   0.26283   0.066678  
         C         C         0.99599   0.69705   0.31139   -0.126871           
         C         C         0.90287   0.75329   0.21077   -0.132660           
         H         H         0.03306   0.67544   0.35811   0.103053  
         C         C         0.97501   0.78916   0.21392   -0.129399           
         C         C         0.92321   0.66075   0.30602   -0.129326           
         H         H         0.99257   0.83807   0.17086   0.102267  
         C         C         0.87415   0.68747   0.25341   0.064844  
         C         C         0.79589   0.64849   0.24202   0.067887  
         C         C         0.74851   0.57355   0.19912   -0.133092           
         C         C         0.69177   0.64856   0.26501   -0.130432           
         H         H         0.76862   0.54319   0.16672   0.102797  
         C         C         0.76473   0.68488   0.27173   -0.134118           
         C         C         0.67492   0.53720   0.19001   -0.126872           
         H         H         0.79976   0.74288   0.30712   0.097996  
         C         C         0.64492   0.57368   0.22562   0.065243  
         H         H         0.63943   0.47918   0.15091   0.102963  
         H         H         0.90500   0.61173   0.34865   0.101736  
         H         H         0.67219   0.67945   0.29695   0.103794  
         H         H         0.86650   0.77551   0.16807   0.097535  
         C         C         0.23600   0.75750   0.21669   0.062257  
         C         C         0.19641   0.68321   0.19086   -0.132787           
         C         C         0.34873   0.75831   0.23859   -0.131095           
         H         H         0.13632   0.65210   0.16988   0.104757  
         C         C         0.31266   0.79358   0.23733   -0.126076           
         C         C         0.23263   0.64785   0.19322   -0.131954           
         H         H         0.34602   0.85082   0.25633   0.104303  
         C         C         0.31019   0.68454   0.21941   0.064595  
         C         C         0.34863   0.64726   0.22226   0.050664  
         C         C         0.32964   0.58430   0.27914   -0.134371           
         C         C         0.44128   0.63740   0.16857   -0.130187           
         H         H         0.28846   0.56411   0.32967   0.097470  
         C         C         0.40552   0.67301   0.16759   -0.134473           
         C         C         0.36603   0.54918   0.28165   -0.131801           
         H         H         0.41955   0.72001   0.11620   0.102561  
         C         C         0.42239   0.57436   0.22548   0.057685  
         H         H         0.35228   0.50259   0.33456   0.101038  
         H         H         0.19962   0.59037   0.17193   0.105467  
         H         H         0.48226   0.65786   0.11763   0.098011  
         H         H         0.40852   0.78866   0.25757   0.106728  
         C         C         0.24176   0.98292   0.24311   0.058153  
         C         C         0.29816   0.01536   0.18675   -0.130564           
         C         C         0.25471   0.09655   0.28852   -0.131135           
         H         H         0.31401   0.98434   0.13869   0.100912  
         C         C         0.22127   0.02578   0.29423   -0.133065           
         C         C         0.33246   0.08638   0.18299   -0.133407           
         H         H         0.18073   0.00462   0.34625   0.097711  
         C         C         0.31153   0.12887   0.23358   0.048592  
         C         C         0.34900   0.20452   0.23370   0.063386  
         C         C         0.42748   0.24579   0.26528   -0.128983           
         C         C         0.34611   0.31140   0.21334   -0.127989           
         H         H         0.46064   0.22114   0.28801   0.105875  
         C         C         0.30954   0.23952   0.20905   -0.130105           
         C         C         0.46431   0.31778   0.27150   -0.130778           
         H         H         0.24863   0.20973   0.18368   0.105261  
         C         C         0.42447   0.35270   0.24356   0.064148  
         H         H         0.52537   0.34712   0.29808   0.103729  
         H         H         0.37403   0.10848   0.13337   0.096482  
         H         H         0.31221   0.33533   0.19020   0.104821  
         H         H         0.23902   0.12820   0.33513   0.101425 

