
##########################################################################
#               Crystallographic Information Format file
#               Produced by PyCifRW module
#
#  This is a CIF file.  CIF has been adopted by the International
#  Union of Crystallography as the standard for data archiving and
#  transmission.
#
#  For information on this file format, follow the CIF links at
#  http://www.iucr.org
##########################################################################

data_image0

_cell_length_a                          30.2909
_cell_length_b                          30.2549
_cell_length_c                          7.31236
_cell_angle_alpha                       55.361
_cell_angle_beta                        106.716
_cell_angle_gamma                       119.592
_symmetry_space_group_name_H-M          'P 1'
_space_group_name_Hall                  'P 1'
loop_
  _atom_site_type_symbol
  _atom_site_label
  _atom_site_fract_x
  _atom_site_fract_y
  _atom_site_fract_z
  _atom_site_charge
         H         H         0.02287   0.24144   0.60924   0.129718  
         H         H         0.96208   0.22475   0.93547   0.086246  
         H         H         0.69153   0.07892   0.59226   0.074162  
         H         H         0.63137   0.07284   0.89011   0.133918  
         H         H         0.73241   0.77419   0.76510   0.134303  
         H         H         0.74755   0.68755   0.86196   0.074685  
         H         H         0.94750   0.64830   0.61863   0.069467  
         H         H         0.90739   0.51214   0.86071   0.134534  
         H         H         0.21077   0.01604   0.50528   0.150233  
         H         H         0.29809   0.02893   0.84402   0.054566  
         H         H         0.36903   0.32832   0.63333   0.080681  
         H         H         0.47094   0.36017   0.87990   0.135636  
         H         H         0.98150   0.81019   0.13891   0.131741  
         H         H         0.03850   0.72978   0.37084   0.067187  
         H         H         0.30394   0.95870   0.09439   0.060054  
         H         H         0.37673   0.89659   0.34043   0.136669  
         H         H         0.27060   0.22525   0.24709   0.134072  
         H         H         0.24470   0.25846   0.42794   0.076307  
         H         H         0.05727   0.38910   0.10248   0.074448  
         H         H         0.09033   0.45640   0.35101   0.134356  
         H         H         0.79674   0.02831   0.18635   0.130581  
         H         H         0.70027   0.92505   0.46098   0.079081  
         H         H         0.62847   0.70491   0.10283   0.075039  
         H         H         0.53787   0.60375   0.41843   0.132280  
         H         H         0.95048   0.73236   0.25014   0.136347  
         H         H         0.03209   0.77417   0.07611   0.087897  
         H         H         0.31607   0.92507   0.38550   0.073821  
         H         H         0.36220   0.92757   0.05102   0.133487  
         H         H         0.20730   0.17646   0.33762   0.130394  
         H         H         0.25319   0.31205   0.13664   0.074137  
         H         H         0.05486   0.35517   0.39550   0.069487  
         H         H         0.09104   0.48948   0.05761   0.135244  
         H         H         0.76031   0.03516   0.31234   0.140305  
         H         H         0.70043   0.96989   0.16585   0.053272  
         H         H         0.63230   0.66826   0.39836   0.078345  
         H         H         0.53432   0.64058   0.12318   0.135723  
         H         H         0.04953   0.27273   0.78342   0.134208  
         H         H         0.96320   0.27449   0.64160   0.064908  
         H         H         0.69344   0.03936   0.88754   0.061669  
         H         H         0.62753   0.10924   0.59537   0.136431  
         H         H         0.78310   0.76725   0.96061   0.145638  
         H         H         0.76007   0.74366   0.57421   0.077070  
         H         H         0.94244   0.60004   0.91214   0.073951  
         H         H         0.91147   0.56079   0.56707   0.136018  
         H         H         0.24025   0.96747   0.68149   0.140550  
         H         H         0.30134   0.07625   0.54967   0.077746  
         H         H         0.37624   0.29370   0.92789   0.075105  
         H         H         0.46232   0.39566   0.58624   0.133616  
         H         H         0.89064   0.24694   0.75370   0.128929  
         H         H         0.76341   0.06804   0.73093   0.123659  
         H         H         0.92745   0.13305   0.67677   0.252614  
         H         H         0.98961   0.11705   0.66469   0.094568  
         H         H         0.06003   0.09546   0.73571   0.110644  
         H         H         0.66560   0.21903   0.73011   0.086865  
         H         H         0.76008   0.35709   0.75254   0.117884  
         H         H         0.81087   0.53182   0.74684   0.244157  
         H         H         0.02124   0.19495   0.90264   0.131222  
         H         H         0.60538   0.03080   0.75655   0.145356  
         C         C         0.74644   0.43907   0.75005   -0.012521           
         C         C         0.76401   0.56660   0.72720   0.447345  
         C         C         0.81004   0.61787   0.73533   -0.104001           
         C         C         0.86186   0.62999   0.74199   0.198430  
         C         C         0.89919   0.68028   0.74793   -0.230047           
         C         C         0.88774   0.71931   0.75213   -0.114415           
         C         C         0.79861   0.65662   0.74079   -0.211436           
         C         C         0.83582   0.70578   0.75460   0.216891  
         C         C         0.93307   0.77198   0.75174   0.443525  
         C         C         0.93994   0.89050   0.76149   0.005235  
         C         C         0.01828   0.23601   0.76502   -0.424200           
         C         C         0.68676   0.07713   0.74021   0.087229  
         C         C         0.63487   0.07253   0.74556   -0.417365           
         N         N         0.73464   0.47608   0.74098   -0.097185           
         N         N         0.77368   0.52473   0.73951   -0.236130           
         N         N         0.92128   0.80968   0.75812   -0.234757           
         N         N         0.95746   0.85859   0.76524   -0.104932           
         O         O         0.72066   0.56226   0.71358   -0.464030           
         O         O         0.97701   0.78002   0.74505   -0.482509           
         O         O         0.72455   0.13091   0.73822   -0.225224           
         O         O         0.82408   0.74115   0.77528   -0.210704           
         H         H         0.75849   0.64572   0.73601   0.130445  
         H         H         0.93922   0.69158   0.74951   0.120824  
         H         H         0.88327   0.79977   0.75400   0.243859  
         H         H         0.89902   0.87840   0.75272   0.088466  
         H         H         0.91081   0.96549   0.72062   0.117061  
         H         H         0.78598   0.44645   0.75464   0.085080  
         H         H         0.64488   0.40134   0.75370   0.116960  
         H         H         0.47098   0.27857   0.75322   0.246194  
         H         H         0.79578   0.82300   0.67553   0.128749  
         H         H         0.96764   0.56488   0.73241   0.138731  
         C         C         0.56386   0.30754   0.74768   -0.012202           
         C         C         0.44039   0.20341   0.73006   0.449575  
         C         C         0.38764   0.19462   0.74276   -0.110592           
         C         C         0.37306   0.22860   0.76855   0.201057  
         C         C         0.32165   0.21099   0.78759   -0.234942           
         C         C         0.28312   0.16163   0.77530   -0.103093           
         C         C         0.34918   0.14582   0.72775   -0.226169           
         C         C         0.29773   0.12935   0.73850   0.205376  
         C         C         0.22990   0.15087   0.79280   0.445573  
         C         C         0.11236   0.03870   0.78283   0.006148  
         C         C         0.77104   0.77689   0.78996   -0.412459           
         C         C         0.92647   0.60306   0.75197   0.084167  
         C         C         0.92804   0.55738   0.72691   -0.414342           
         N         N         0.52851   0.26226   0.73392   -0.102047           
         N         N         0.47981   0.25227   0.73736   -0.240293           
         N         N         0.19269   0.09950   0.80052   -0.222068           
         N         N         0.14265   0.08731   0.78462   -0.113554           
         O         O         0.44755   0.16880   0.71529   -0.464437           
         O         O         0.22126   0.18670   0.79368   -0.476456           
         O         O         0.87352   0.59160   0.73930   -0.223086           
         O         O         0.26056   0.08302   0.71167   -0.211331           
         H         H         0.36213   0.12153   0.70540   0.126005  
         H         H         0.30893   0.23521   0.81163   0.124462  
         H         H         0.20387   0.07091   0.81255   0.247906  
         H         H         0.12697   0.01037   0.79501   0.086953  
         H         H         0.04314   0.93929   0.78491   0.114115  
         H         H         0.55553   0.33711   0.76043   0.086100  
         H         H         0.60178   0.24412   0.74152   0.116364  
         H         H         0.72599   0.19328   0.73920   0.243899  
         H         H         0.20169   0.97372   0.79946   0.129845  
         H         H         0.43429   0.40212   0.74767   0.141882  
         C         C         0.69642   0.25696   0.74256   -0.018537           
         C         C         0.80437   0.24041   0.74678   0.450070  
         C         C         0.81234   0.19526   0.74456   -0.105620           
         C         C         0.77521   0.14390   0.73812   0.200544  
         C         C         0.79061   0.10808   0.73368   -0.227540           
         C         C         0.84194   0.12084   0.73405   -0.111718           
         C         C         0.86348   0.20738   0.74782   -0.215786           
         C         C         0.87904   0.17198   0.74152   0.209199  
         C         C         0.85108   0.07626   0.73459   0.438349  
         C         C         0.96220   0.07303   0.69258   0.012910  
         C         C         0.22926   -0.00110  0.66787   -0.416642           
         C         C         0.39580   0.31724   0.77169   0.083614  
         C         C         0.44376   0.37185   0.74470   -0.417460           
         N         N         0.74376   0.26771   0.75100   -0.097905           
         N         N         0.75412   0.22960   0.74620   -0.237454           
         N         N         0.90022   0.09340   0.69144   -0.234551           
         N         N         0.91382   0.05474   0.70548   -0.116798           
         O         O         0.84029   0.28401   0.74812   -0.460011           
         O         O         0.81613   0.02752   0.77252   -0.483875           
         O         O         0.41079   0.27851   0.77166   -0.223824           
         O         O         0.92933   0.18491   0.74160   -0.211052           
         H         H         0.10882   0.75714   0.22584   0.133191  
         H         H         0.23986   0.93234   0.27123   0.123196  
         H         H         0.07565   0.87119   0.30387   0.246282  
         H         H         0.01236   0.88448   0.32091   0.092196  
         H         H         0.94002   0.90370   0.27378   0.112385  
         H         H         0.33291   0.78043   0.26179   0.084696  
         H         H         0.24006   0.64308   0.23247   0.116700  
         H         H         0.19107   0.46843   0.24912   0.243812  
         H         H         0.98343   0.76133   0.43085   0.128827  
         H         H         0.39457   0.97399   0.16647   0.145464  
         C         C         0.25527   0.56231   0.23485   -0.012827           
         C         C         0.23753   0.43522   0.25429   0.446935  
         C         C         0.19132   0.38200   0.26119   -0.106561           
         C         C         0.13949   0.36819   0.26497   0.204165  
         C         C         0.10235   0.31620   0.27106   -0.234802           
         C         C         0.11406   0.27695   0.26927   -0.111331           
         C         C         0.20302   0.34271   0.26029   -0.213316           
         C         C         0.16595   0.29172   0.25931   0.217147  
         C         C         0.06905   0.22307   0.27687   0.447216  
         C         C         0.06279   0.11125   0.22343   0.005473  
         C         C         0.98395   0.76802   0.26759   -0.421414           
         C         C         0.31478   0.92368   0.23691   0.088277  
         C         C         0.36480   0.93043   0.19712   -0.417651           
         N         N         0.26735   0.52575   0.24219   -0.096403           
         N         N         0.22810   0.47665   0.24692   -0.237223           
         N         N         0.08132   0.18854   0.25193   -0.238248           
         N         N         0.04537   0.13987   0.24305   -0.101374           
         O         O         0.28077   0.44124   0.25348   -0.460986           
         O         O         0.02504   0.21169   0.30062   -0.485018           
         O         O         0.27610   0.86739   0.26306   -0.224498           
         O         O         0.17810   0.25604   0.24251   -0.207524           
         H         H         0.24312   0.35482   0.25757   0.131140  
         H         H         0.06227   0.30358   0.27680   0.120920  
         H         H         0.11928   0.20087   0.24193   0.244215  
         H         H         0.10360   0.12554   0.21625   0.091550  
         H         H         0.09066   0.03614   0.25367   0.115437  
         H         H         0.21560   0.55441   0.23081   0.084812  
         H         H         0.35730   0.60053   0.24051   0.117175  
         H         H         0.52991   0.72118   0.25322   0.246548  
         H         H         0.21982   0.23085   0.05130   0.145726  
         H         H         0.03234   0.44130   0.20249   0.138806  
         C         C         0.43690   0.69240   0.25868   -0.010366           
         C         C         0.56042   0.79313   0.29726   0.444285  
         C         C         0.61339   0.80328   0.27960   -0.107385           
         C         C         0.62847   0.76999   0.25159   0.202145  
         C         C         0.67983   0.78855   0.22838   -0.230668           
         C         C         0.71786   0.83871   0.23667   -0.107618           
         C         C         0.65146   0.85286   0.29097   -0.229440           
         C         C         0.70289   0.87063   0.27380   0.208237  
         C         C         0.77116   0.85074   0.21553   0.447875  
         C         C         0.88951   0.96444   0.20876   0.003689  
         C         C         0.23187   0.22226   0.22077   -0.415186           
         C         C         0.07450   0.39601   0.24353   0.084804  
         C         C         0.07221   0.44903   0.21167   -0.414105           
         N         N         0.47229   0.73732   0.27430   -0.105455           
         N         N         0.52101   0.74659   0.27454   -0.235764           
         N         N         0.80840   0.90224   0.20701   -0.222739           
         N         N         0.85836   0.91418   0.22163   -0.114143           
         O         O         0.55307   0.82518   0.32673   -0.461135           
         O         O         0.77999   0.81532   0.21282   -0.475478           
         O         O         0.12762   0.40750   0.26050   -0.227321           
         O         O         0.73991   0.91804   0.29409   -0.211676           
         H         H         0.63816   0.87656   0.31525   0.127085  
         H         H         0.69277   0.76468   0.20305   0.124785  
         H         H         0.79731   0.93115   0.19298   0.248759  
         H         H         0.87589   0.99519   0.18291   0.088223  
         H         H         0.95995   0.06475   0.19369   0.114259  
         H         H         0.44517   0.66219   0.24961   0.086344  
         H         H         0.39740   0.75523   0.26405   0.115979  
         H         H         0.27310   0.80550   0.25823   0.244575  
         H         H         0.79191   0.98842   0.48294   0.151143  
         H         H         0.56967   0.59684   0.27133   0.143082  
         C         C         0.30215   0.74235   0.25062   -0.015727           
         C         C         0.19479   0.76086   0.24005   0.446535  
         C         C         0.18784   0.80592   0.24737   -0.102888           
         C         C         0.22576   0.85627   0.25935   0.196682  
         C         C         0.21171   0.89310   0.26409   -0.222493           
         C         C         0.16067   0.88189   0.26014   -0.111118           
         C         C         0.13694   0.79539   0.23952   -0.212941           
         C         C         0.12277   0.83150   0.24817   0.209381  
         C         C         0.15209   0.92635   0.26396   0.438903  
         C         C         0.03928   0.92822   0.29805   0.011810  
         C         C         0.77124   0.00382   0.32507   -0.418464           
         C         C         0.60702   0.68084   0.25414   0.085869  
         C         C         0.55926   0.62743   0.26761   -0.416021           
         N         N         0.25476   0.73156   0.24163   -0.099598           
         N         N         0.24482   0.76999   0.24655   -0.238235           
         N         N         0.10250   0.90985   0.29891   -0.234176           
         N         N         0.08794   0.94735   0.28759   -0.112378           
         O         O         0.15818   0.71893   0.22929   -0.459937           
         O         O         0.18762   0.97378   0.23755   -0.484760           
         O         O         0.59123   0.71978   0.24907   -0.228714           
         O         O         0.07300   0.82084   0.24359   -0.206945           
         C         C         0.04967   0.02136   0.24827   -0.151957           
         C         C         0.02883   0.05658   0.22371   0.067435  
         C         C         0.34650   0.62967   0.24210   -0.163799           
         C         C         0.38345   0.67977   0.25194   0.073785  
         C         C         0.23102   0.26593   0.26062   0.077631  
         C         C         0.97580   0.03705   0.21194   -0.162804           
         C         C         0.94403   0.98252   0.22652   0.066436  
         C         C         0.36828   0.71654   0.25524   -0.165816           
         C         C         0.31680   0.70346   0.24727   0.075626  
         C         C         0.72398   0.95351   0.31265   0.088059  
         C         C         0.96541   0.94654   0.25862   -0.144371           
         C         C         0.01804   0.96549   0.27052   0.077495  
         C         C         0.27993   0.65273   0.23759   -0.164381           
         C         C         0.29443   0.61560   0.23657   0.079230  
         C         C         0.03199   0.76915   0.23718   0.080386  
         C         C         0.95186   0.98028   0.73356   -0.150902           
         C         C         0.97351   0.94555   0.75927   0.067320  
         C         C         0.65486   0.37157   0.75210   -0.164304           
         C         C         0.61725   0.32087   0.74824   0.075210  
         C         C         0.77160   0.73380   0.74546   0.076260  
         C         C         0.02666   0.96584   0.77159   -0.161139           
         C         C         0.05772   0.01959   0.76453   0.064316  
         C         C         0.63145   0.28341   0.74491   -0.170132           
         C         C         0.68266   0.29633   0.74694   0.076409  
         C         C         0.27620   0.04729   0.69338   0.088305  
         C         C         0.03550   0.05388   0.73986   -0.140166           
         C         C         0.98287   0.03514   0.72066   0.077162  
         C         C         0.72034   0.34765   0.75112   -0.165247           
         C         C         0.70677   0.38550   0.75197   0.078189  
         C         C         0.96775   0.23367   0.77352   0.086009 

