
##########################################################################
#               Crystallographic Information Format file
#               Produced by PyCifRW module
#
#  This is a CIF file.  CIF has been adopted by the International
#  Union of Crystallography as the standard for data archiving and
#  transmission.
#
#  For information on this file format, follow the CIF links at
#  http://www.iucr.org
##########################################################################

data_image0

_cell_length_a                          29.8219
_cell_length_b                          29.3333
_cell_length_c                          9.34803
_cell_angle_alpha                       57.9192
_cell_angle_beta                        115.577
_cell_angle_gamma                       118.367
_symmetry_space_group_name_H-M          'P 1'
_space_group_name_Hall                  'P 1'
loop_
  _atom_site_type_symbol
  _atom_site_label
  _atom_site_fract_x
  _atom_site_fract_y
  _atom_site_fract_z
  _atom_site_charge
         H         H         0.32213   0.34233   0.91622   0.123071  
         H         H         0.44038   0.36319   0.08631   0.085223  
         H         H         0.68643   0.00578   0.00996   0.130234  
         H         H         0.63990   0.05107   0.12838   0.069208  
         H         H         0.97733   0.68223   0.81552   0.125887  
         H         H         0.90913   0.56822   0.04417   0.069614  
         H         H         0.64282   0.61846   0.85144   0.129659  
         H         H         0.61354   0.67668   0.97893   0.073405  
         H         H         0.32615   0.00986   0.81229   0.129154  
         H         H         0.35232   0.90175   0.11314   0.076155  
         H         H         0.03173   0.34303   0.95944   0.131243  
         H         H         0.06645   0.39227   0.22602   0.060173  
         H         H         0.68195   0.63730   0.03165   0.119820  
         H         H         0.57399   0.65397   0.80807   0.090368  
         H         H         0.31511   0.97754   0.02274   0.128915  
         H         H         0.36514   0.93579   0.90418   0.073568  
         H         H         0.00685   0.30846   0.14677   0.127611  
         H         H         0.09289   0.42540   0.04222   0.071327  
         H         H         0.35596   0.35174   0.11413   0.133041  
         H         H         0.40841   0.34972   0.89580   0.072088  
         H         H         0.67183   0.97234   0.21539   0.129356  
         H         H         0.65605   0.08668   0.92457   0.078638  
         H         H         0.97252   0.66672   0.02084   0.132970  
         H         H         0.91693   0.58342   0.84365   0.066916  
         H         H         0.67174   0.69100   0.81745   0.125890  
         H         H         0.58869   0.51759   0.00497   0.113389  
         H         H         0.41313   0.52828   0.07040   0.251728  
         H         H         0.27545   0.55162   0.13004   0.109647  
         H         H         0.34546   0.53764   0.09630   0.086478  
         C         C         0.38409   0.66976   0.09179   -0.148759           
         C         C         0.36769   0.70140   0.11912   0.081816  
         C         C         0.45474   0.46585   0.90773   0.252389  
         C         C         0.44689   0.50738   0.91747   -0.219179           
         C         C         0.47755   0.59396   0.97179   0.459201  
         C         C         0.48830   0.55096   0.96198   -0.091984           
         C         C         0.37062   0.58138   0.07959   -0.033782           
         C         C         0.60449   0.64596   0.92952   0.076677  
         O         O         0.58299   0.59013   0.06169   -0.258707           
         C         C         0.65306   0.64809   0.90675   -0.418030           
         N         N         0.43153   0.57122   0.02586   -0.239870           
         N         N         0.41539   0.60406   0.04052   -0.090295           
         O         O         0.50474   0.64402   0.93411   -0.443731           
         H         H         0.27975   0.94054   0.88547   0.129050  
         H         H         0.47820   0.07584   0.94790   0.129246  
         H         H         0.43334   0.86209   0.97052   0.263300  
         H         H         0.42211   0.68712   0.06320   0.120173  
         H         H         0.43095   0.77771   0.02231   0.090702  
         C         C         0.31799   0.67832   0.15373   -0.157132           
         C         C         0.28429   0.62510   0.15242   0.068090  
         C         C         0.54947   0.00629   0.98055   0.222693  
         C         C         0.51429   0.95140   0.04078   -0.205658           
         C         C         0.43649   0.87960   0.16245   0.458125  
         C         C         0.46762   0.94003   0.07396   -0.122299           
         C         C         0.40210   0.75921   0.09734   0.031265  
         C         C         0.36053   0.94266   0.00119   0.073317  
         O         O         0.40956   0.98200   0.05724   -0.224780           
         C         C         0.31798   0.96938   0.92564   -0.414505           
         N         N         0.42942   0.84428   0.09676   -0.245106           
         N         N         0.39798   0.78808   0.15605   -0.122006           
         O         O         0.42038   0.86287   0.29032   -0.496115           
         H         H         0.07365   0.32019   0.17034   0.125645  
         H         H         0.93087   0.40838   0.00942   0.124990  
         H         H         0.13685   0.55130   0.20298   0.276077  
         H         H         0.30556   0.70345   0.17405   0.123262  
         H         H         0.22153   0.61624   0.24183   0.097585  
         C         C         0.30193   0.59318   0.12867   -0.189242           
         C         C         0.35207   0.61482   0.10105   0.070562  
         C         C         0.98817   0.53636   0.03641   0.228759  
         C         C         0.03831   0.54630   0.03155   -0.190192           
         C         C         0.10429   0.52578   -0.00191  0.464463  
         C         C         0.05076   0.50861   0.01729   -0.112093           
         C         C         0.23020   0.60382   0.16701   0.004154  
         C         C         0.05805   0.39579   0.09438   0.068037  
         O         O         0.01434   0.41761   0.98505   -0.221303           
         C         C         0.04144   0.33835   0.09313   -0.408400           
         N         N         0.14429   0.55224   0.10242   -0.239303           
         N         N         0.19431   0.57218   0.08600   -0.130646           
         O         O         0.11214   0.51838   0.89271   -0.497009           
         H         H         0.34908   0.28984   0.10259   0.127208  
         H         H         0.40630   0.50424   0.88753   0.117227  
         H         H         0.59208   0.44355   0.06357   0.248042  
         H         H         0.72666   0.43195   0.94851   0.111990  
         H         H         0.66001   0.43246   0.04364   0.081743  
         C         C         0.61320   0.32184   0.92759   -0.156965           
         C         C         0.62998   0.29192   0.89389   0.075439  
         C         C         0.54013   0.55251   -0.00077  0.232988  
         C         C         0.54802   0.51228   0.98391   -0.204966           
         C         C         0.51617   0.43097   0.90023   0.452936  
         C         C         0.50650   0.46878   0.93647   -0.120831           
         C         C         0.63005   0.40447   0.97880   -0.014030           
         C         C         0.40648   0.36594   0.97415   0.072123  
         O         O         0.40994   0.42568   0.86668   -0.225562           
         C         C         0.35531   0.33573   0.03019   -0.413454           
         N         N         0.56677   0.42741   0.97322   -0.236126           
         N         N         0.58073   0.39892   0.93169   -0.104883           
         O         O         0.48343   0.40622   0.80632   -0.461521           
         H         H         0.72278   0.03885   0.15791   0.127648  
         H         H         0.52553   0.91646   0.07080   0.131315  
         H         H         0.56516   0.13246   0.03917   0.263118  
         H         H         0.57387   0.30502   0.94621   0.118143  
         H         H         0.56393   0.21653   0.97098   0.089737  
         C         C         0.68108   0.31459   0.87014   -0.155600           
         C         C         0.71593   0.36483   0.89110   0.070751  
         C         C         0.45488   0.98613   0.03987   0.221912  
         C         C         0.48993   0.04108   0.97923   -0.206803           
         C         C         0.56937   0.11258   0.86425   0.454777  
         C         C         0.53707   0.05246   0.94814   -0.124534           
         C         C         0.59542   0.23492   0.90644   0.029550  
         C         C         0.64448   0.04487   0.02994   0.071431  
         O         O         0.59422   0.01009   0.96043   -0.225056           
         C         C         0.68359   0.01353   0.10800   -0.415338           
         N         N         0.57163   0.14910   0.91718   -0.246988           
         N         N         0.60301   0.20541   0.85860   -0.124432           
         O         O         0.59080   0.12849   0.74948   -0.495241           
         H         H         0.91639   0.66999   0.84235   0.126749  
         H         H         0.06761   0.58652   0.03222   0.127101  
         H         H         0.86299   0.44636   0.83667   0.270545  
         H         H         0.69368   0.29102   0.84397   0.122418  
         H         H         0.77969   0.37707   0.79931   0.095559  
         C         C         0.69895   0.39335   0.93066   -0.184304           
         C         C         0.64734   0.37305   0.94413   0.073035  
         C         C         0.01031   0.45839   0.00576   0.220433  
         C         C         0.96044   0.44830   0.01191   -0.197380           
         C         C         0.89464   0.46701   0.05019   0.464635  
         C         C         0.94805   0.48572   0.02804   -0.120111           
         C         C         0.77034   0.38716   0.87862   -0.000187           
         C         C         0.93609   0.59366   0.95798   0.073959  
         O         O         0.98383   0.57855   0.04882   -0.213020           
         C         C         0.95164   0.65688   0.90594   -0.413190           
         N         N         0.85529   0.44060   0.94462   -0.234287           
         N         N         0.80532   0.41787   0.96354   -0.124487           
         O         O         0.88633   0.47224   0.15926   -0.499766           
         H         H         0.32185   0.32202   0.46852   0.123737  
         H         H         0.44152   0.35629   0.62780   0.086015  
         H         H         0.68216   0.00945   0.48620   0.128786  
         H         H         0.63799   0.04963   0.62886   0.071492  
         H         H         0.98685   0.69162   0.33255   0.127813  
         H         H         0.91072   0.57738   0.52877   0.070999  
         H         H         0.66307   0.69509   0.42535   0.124182  
         H         H         0.54263   0.66447   0.29852   0.071805  
         H         H         0.32491   0.02405   0.29132   0.127138  
         H         H         0.34646   0.91164   0.57565   0.079535  
         H         H         0.02526   0.33598   0.51203   0.133069  
         H         H         0.08446   0.41983   0.68800   0.068510  
         H         H         0.62084   0.69671   0.51050   0.134882  
         H         H         0.58244   0.66410   0.20266   0.065778  
         H         H         0.31226   0.98779   0.50143   0.130047  
         H         H         0.36113   0.94940   0.36828   0.068508  
         H         H         0.02315   0.32085   0.72046   0.125295  
         H         H         0.09054   0.43402   0.48616   0.070051  
         H         H         0.35274   0.33537   0.65966   0.129173  
         H         H         0.41035   0.34454   0.43366   0.075217  
         H         H         0.66859   0.97194   0.69497   0.130072  
         H         H         0.65245   0.08776   0.42095   0.076944  
         H         H         0.97607   0.67225   0.53322   0.132845  
         H         H         0.92404   0.59607   0.33304   0.063939  
         H         H         0.62908   0.74577   0.29574   0.125197  
         H         H         0.57777   0.52916   0.39324   0.122554  
         H         H         0.40133   0.55171   0.44813   0.240422  
         H         H         0.27720   0.56097   0.60091   0.109243  
         H         H         0.34175   0.55624   0.51859   0.079927  
         C         C         0.38922   0.67392   0.60501   -0.133586           
         C         C         0.37282   0.70320   0.64223   0.076977  
         C         C         0.45115   0.45966   0.43005   0.240315  
         C         C         0.44728   0.49962   0.45954   -0.218370           
         C         C         0.48316   0.58722   0.51676   0.451178  
         C         C         0.48850   0.54906   0.46846   -0.109990           
         C         C         0.37203   0.59225   0.54945   -0.017088           
         C         C         0.58000   0.65990   0.32327   0.083135  
         O         O         0.58152   0.60324   0.45569   -0.234629           
         C         C         0.62608   0.70191   0.39290   -0.409796           
         N         N         0.43139   0.58025   0.49568   -0.238493           
         N         N         0.42036   0.60868   0.54566   -0.088966           
         O         O         0.52044   0.62128   0.57327   -0.446709           
         H         H         0.27684   0.95552   0.35146   0.126502  
         H         H         0.47695   0.08204   0.43393   0.129282  
         H         H         0.43871   0.86277   0.48957   0.264951  
         H         H         0.42808   0.69138   0.58217   0.124239  
         H         H         0.43932   0.77804   0.56643   0.095175  
         C         C         0.32259   0.67942   0.67360   -0.152369           
         C         C         0.28811   0.62837   0.65763   0.067681  
         C         C         0.54619   0.00919   0.47378   0.222292  
         C         C         0.51021   0.95490   0.53366   -0.205723           
         C         C         0.43101   0.88529   0.65088   0.454566  
         C         C         0.46326   0.94497   0.56237   -0.122619           
         C         C         0.40698   0.76050   0.62642   0.037323  
         C         C         0.35642   0.95389   0.47011   0.069587  
         O         O         0.40617   0.99006   0.53659   -0.223164           
         C         C         0.31541   0.98224   0.39920   -0.411315           
         N         N         0.42955   0.84732   0.60608   -0.246877           
         N         N         0.39811   0.79114   0.66650   -0.128358           
         O         O         0.40918   0.87133   0.76237   -0.498287           
         H         H         0.08255   0.33189   0.68640   0.128238  
         H         H         0.93371   0.41593   0.50881   0.123884  
         H         H         0.14055   0.55305   0.71120   0.272047  
         H         H         0.31021   0.70259   0.70215   0.119315  
         H         H         0.22638   0.61655   0.75700   0.094672  
         C         C         0.30474   0.60006   0.61597   -0.179439           
         C         C         0.35553   0.62198   0.59292   0.072429  
         C         C         0.99104   0.54381   0.53603   0.224845  
         C         C         0.04115   0.55370   0.53107   -0.194086           
         C         C         0.10688   0.53401   0.49368   0.463870  
         C         C         0.05346   0.51626   0.51494   -0.112390           
         C         C         0.23412   0.60662   0.67360   0.007150  
         C         C         0.06433   0.40905   0.57464   0.070359  
         O         O         0.01691   0.42467   0.48594   -0.211650           
         C         C         0.04782   0.34568   0.62695   -0.416682           
         N         N         0.14754   0.55780   0.60345   -0.235309           
         N         N         0.19739   0.57790   0.58475   -0.129905           
         O         O         0.11378   0.52958   0.38010   -0.500934           
         H         H         0.35558   0.27640   0.65753   0.127501  
         H         H         0.41070   0.48710   0.48994   0.116485  
         H         H         0.58601   0.45091   0.51986   0.253727  
         H         H         0.72537   0.43784   0.43845   0.113505  
         H         H         0.65482   0.43859   0.51806   0.085904  
         C         C         0.61454   0.32432   0.42683   -0.158187           
         C         C         0.63345   0.29375   0.40350   0.081021  
         C         C         0.53675   0.55845   0.44551   0.240862  
         C         C         0.54101   0.51801   0.42006   -0.224116           
         C         C         0.50820   0.42857   0.38032   0.454800  
         C         C         0.49985   0.46802   0.41409   -0.121286           
         C         C         0.62639   0.40851   0.45898   -0.019590           
         C         C         0.40680   0.35721   0.51844   0.067766  
         O         O         0.40566   0.41564   0.41937   -0.231137           
         C         C         0.35622   0.32081   0.57944   -0.409842           
         N         N         0.56006   0.42854   0.44598   -0.225784           
         N         N         0.57632   0.40007   0.41210   -0.106807           
         O         O         0.47409   0.39979   0.29962   -0.460223           
         H         H         0.71943   0.03879   0.64312   0.127628  
         H         H         0.52111   0.91940   0.56621   0.130981  
         H         H         0.56720   0.13403   0.54309   0.264210  
         H         H         0.57483   0.30701   0.44293   0.119013  
         H         H         0.56814   0.21790   0.48330   0.089548  
         C         C         0.68504   0.31701   0.38342   -0.156908           
         C         C         0.71826   0.36870   0.39757   0.071198  
         C         C         0.45139   0.99219   0.52440   0.225399  
         C         C         0.48780   0.04645   0.46718   -0.209849           
         C         C         0.56869   0.11592   0.35953   0.457741  
         C         C         0.53505   0.05624   0.44062   -0.122322           
         C         C         0.59950   0.23646   0.41804   0.027523  
         C         C         0.64129   0.04525   0.52430   0.071302  
         O         O         0.59032   0.01151   0.45408   -0.227324           
         C         C         0.67998   0.01436   0.59134   -0.413191           
         N         N         0.57400   0.15159   0.42105   -0.246740           
         N         N         0.60640   0.20749   0.36639   -0.119853           
         O         O         0.58840   0.13210   0.24026   -0.493132           
         H         H         0.92430   0.68163   0.34223   0.127114  
         H         H         0.07107   0.59343   0.53406   0.125189  
         H         H         0.86503   0.44723   0.34694   0.274317  
         H         H         0.69942   0.29310   0.36486   0.124691  
         H         H         0.78300   0.38010   0.31263   0.097686  
         C         C         0.69897   0.39814   0.42566   -0.188082           
         C         C         0.64671   0.37706   0.43506   0.071245  
         C         C         0.01302   0.46616   0.50312   0.222465  
         C         C         0.96309   0.45608   0.50940   -0.189397           
         C         C         0.89713   0.47472   0.54729   0.461543  
         C         C         0.95062   0.49344   0.52528   -0.122328           
         C         C         0.77300   0.39131   0.38752   -0.003208           
         C         C         0.94045   0.60325   0.45244   0.074215  
         O         O         0.98657   0.58516   0.55244   -0.217474           
         C         C         0.95804   0.66585   0.41238   -0.416247           
         N         N         0.85769   0.44560   0.44883   -0.234661           
         N         N         0.80774   0.42351   0.46803   -0.125554           
         O         O         0.88860   0.48230   0.65083   -0.495472 

