
##########################################################################
#               Crystallographic Information Format file
#               Produced by PyCifRW module
#
#  This is a CIF file.  CIF has been adopted by the International
#  Union of Crystallography as the standard for data archiving and
#  transmission.
#
#  For information on this file format, follow the CIF links at
#  http://www.iucr.org
##########################################################################

data_image0

_cell_length_a                          44.9299
_cell_length_b                          45.0626
_cell_length_c                          6.81573
_cell_angle_alpha                       108.025
_cell_angle_beta                        102.453
_cell_angle_gamma                       119.485
_symmetry_space_group_name_H-M          'P 1'
_space_group_name_Hall                  'P 1'
loop_
  _atom_site_type_symbol
  _atom_site_label
  _atom_site_fract_x
  _atom_site_fract_y
  _atom_site_fract_z
  _atom_site_charge
         H         H         0.24685   0.32434   0.36776   0.074815  
         H         H         0.20506   0.23612   0.05201   0.139928  
         H         H         0.66029   0.75622   0.36824   0.085285  
         H         H         0.60053   0.71269   0.39793   0.135327  
         H         H         0.69904   0.93782   0.43711   0.070991  
         H         H         0.73070   0.95358   0.09059   0.133411  
         H         H         0.26507   0.91856   0.41548   0.071426  
         H         H         0.31125   0.90164   0.43613   0.131780  
         H         H         0.08350   0.77173   0.35871   0.079985  
         H         H         0.01624   0.76438   0.04626   0.142873  
         H         H         0.10928   0.36811   0.43588   0.074607  
         H         H         0.12530   0.42933   0.43225   0.132705  
         H         H         0.77553   0.69852   0.90965   0.073445  
         H         H         0.76841   0.73521   0.60327   0.131114  
         H         H         0.35877   0.26781   0.87805   0.069650  
         H         H         0.42050   0.31119   0.85070   0.133268  
         H         H         0.33279   0.09773   0.96255   0.082641  
         H         H         0.24799   0.02614   0.67032   0.141176  
         H         H         0.75552   0.10863   0.92566   0.078248  
         H         H         0.71019   0.12513   0.92059   0.136003  
         H         H         0.93182   0.24703   0.90511   0.073963  
         H         H         0.95253   0.20316   0.58321   0.137861  
         H         H         0.91769   0.66293   0.90747   0.074072  
         H         H         0.90271   0.60150   0.91551   0.130891  
         H         H         0.75100   0.67299   0.60339   0.075471  
         H         H         0.79315   0.76137   0.90985   0.139830  
         H         H         0.33581   0.23905   0.57225   0.080826  
         H         H         0.39402   0.28324   0.54490   0.132273  
         H         H         0.31013   0.06954   0.65615   0.070508  
         H         H         0.27119   0.05439   0.97606   0.132891  
         H         H         0.73196   0.07959   0.62080   0.070421  
         H         H         0.68837   0.10126   0.61474   0.131077  
         H         H         0.90935   0.22308   0.59823   0.078455  
         H         H         0.97544   0.22631   0.88858   0.139362  
         H         H         0.89476   0.63682   0.60167   0.075637  
         H         H         0.87884   0.57517   0.60911   0.135120  
         H         H         0.22253   0.29982   0.06163   0.075674  
         H         H         0.22711   0.26100   0.35901   0.132173  
         H         H         0.63453   0.73007   0.06229   0.069874  
         H         H         0.57416   0.68701   0.09225   0.129410  
         H         H         0.67153   0.91212   0.13258   0.084255  
         H         H         0.75793   0.98062   0.39592   0.144129  
         H         H         0.24483   0.89338   0.10971   0.078395  
         H         H         0.29076   0.87650   0.13006   0.136525  
         H         H         0.06329   0.74906   0.05263   0.072334  
         H         H         0.03691   0.78839   0.35285   0.138553  
         H         H         0.08466   0.34137   0.13015   0.076426  
         H         H         0.10345   0.40483   0.12601   0.134572  
         H         H         0.58499   0.33927   0.59999   0.108498  
         H         H         0.52233   0.31579   0.59712   0.103871  
         H         H         0.64658   0.37718   0.78204   0.108301  
         H         H         0.53173   0.24984   0.91649   0.119164  
         H         H         0.59618   0.27611   0.93628   0.113574  
         H         H         0.30615   0.20310   0.72990   0.129197  
         H         H         0.36294   0.13516   0.81399   0.131500  
         H         H         0.14613   0.10161   0.74079   0.115164  
         H         H         0.08398   0.07674   0.74148   0.102351  
         H         H         0.02268   0.95740   0.71336   0.092649  
         H         H         0.47189   0.27955   0.69851   0.076106  
         O         O         0.37833   0.23702   0.74405   -0.226249           
         O         O         0.29106   0.10109   0.79293   -0.218866           
         O         O         0.75040   0.58651   0.73323   -0.452057           
         O         O         0.91805   0.74881   0.78489   -0.471106           
         N         N         0.76821   0.53607   0.74257   -0.094909           
         N         N         0.79207   0.57043   0.75057   -0.236641           
         N         N         0.87382   0.76129   0.72978   -0.233134           
         N         N         0.89660   0.79383   0.71727   -0.103834           
         C         C         0.78169   0.51712   0.76947   -0.027523           
         C         C         0.78118   0.59422   0.74335   0.446933  
         C         C         0.81068   0.63138   0.75321   -0.103695           
         C         C         0.84680   0.64405   0.75865   0.199835  
         C         C         0.86943   0.67935   0.76256   -0.220777           
         C         C         0.85776   0.70291   0.75846   -0.102738           
         C         C         0.79920   0.65515   0.75042   -0.219913           
         C         C         0.82169   0.69018   0.75153   0.203844  
         C         C         0.88619   0.73957   0.76096   0.449612  
         C         C         0.88321   0.81285   0.68989   -0.022289           
         C         C         0.07608   0.02853   0.78765   0.065094  
         C         C         0.09275   0.00948   0.80955   -0.127980           
         C         C         0.12779   0.02293   0.80456   -0.133898           
         C         C         0.14784   0.05624   0.77915   0.063269  
         C         C         0.13165   0.07598   0.76249   -0.121776           
         C         C         0.09669   0.06219   0.76618   -0.126112           
         C         C         0.74413   0.28066   0.80090   -0.111364           
         C         C         0.69207   0.28624   0.71857   0.068447  
         C         C         0.71789   0.23985   0.70474   0.061954  
         C         C         0.67868   0.22285   0.61560   -0.137306           
         C         C         0.73135   0.30326   0.80816   -0.131029           
         C         C         0.66604   0.24559   0.62039   -0.136234           
         H         H         0.63569   0.23207   0.54476   0.110392  
         H         H         0.65788   0.19141   0.53940   0.100504  
         H         H         0.62728   0.27208   0.74758   0.107975  
         H         H         0.77445   0.29390   0.87100   0.120382  
         H         H         0.75198   0.33482   0.88893   0.108652  
         H         H         0.79422   0.10211   0.76147   0.128126  
         H         H         0.86963   0.22566   0.74702   0.130506  
         H         H         0.90642   0.05452   0.86546   0.116225  
         H         H         0.92895   0.01443   0.86047   0.107329  
         H         H         0.04350   0.06613   0.83433   0.098373  
         H         H         0.70752   0.18394   0.62690   0.073610  
         O         O         0.76143   0.13959   0.74528   -0.222033           
         O         O         0.90141   0.18672   0.74309   -0.216810           
         O         O         0.41917   0.17285   0.82507   -0.457395           
         O         O         0.25209   0.16784   0.74993   -0.466112           
         N         N         0.46649   0.23657   0.78222   -0.099638           
         N         N         0.43141   0.22476   0.76789   -0.238086           
         N         N         0.23743   0.11147   0.75445   -0.236965           
         N         N         0.20373   0.10109   0.75892   -0.103554           
         C         C         0.48437   0.26542   0.74330   -0.017248           
         C         C         0.40912   0.19265   0.79244   0.446012  
         C         C         0.37102   0.18271   0.77685   -0.110906           
         C         C         0.35594   0.20327   0.75373   0.203465  
         C         C         0.32003   0.18929   0.74626   -0.232731           
         C         C         0.29821   0.15537   0.76049   -0.106555           
         C         C         0.34911   0.14881   0.79119   -0.230125           
         C         C         0.31315   0.13468   0.78191   0.202523  
         C         C         0.26082   0.14605   0.75523   0.443803  
         C         C         0.18393   0.06913   0.76798   -0.018222           
         C         C         0.97490   0.04620   0.77805   0.076318  
         C         C         0.99375   0.07857   0.74300   -0.126211           
         C         C         0.98126   0.10146   0.74764   -0.137514           
         C         C         0.94910   0.09258   0.78708   0.059317  
         C         C         0.93100   0.06121   0.83192   -0.123543           
         C         C         0.94371   0.03863   0.82719   -0.124838           
         C         C         0.71839   0.46038   0.68867   -0.111378           
         C         C         0.71203   0.40642   0.73716   0.065175  
         C         C         0.75769   0.47940   0.75542   0.065492  
         C         C         0.77346   0.46079   0.80541   -0.140479           
         C         C         0.69612   0.42450   0.67771   -0.127395           
         C         C         0.75109   0.42516   0.79836   -0.135383           
         H         H         0.76413   0.41185   0.84344   0.106168  
         H         H         0.80356   0.47460   0.85109   0.099702  
         H         H         0.72539   0.35235   0.69778   0.107356  
         H         H         0.70613   0.47435   0.64344   0.120268  
         H         H         0.66563   0.40968   0.61824   0.109614  
         H         H         0.89727   0.69045   0.76606   0.123003  
         H         H         0.77112   0.64400   0.74259   0.128842  
         H         H         0.95675   0.85091   0.75095   0.114894  
         H         H         0.99583   0.91306   0.76085   0.103320  
         H         H         0.93477   0.97149   0.70446   0.101822  
         H         H         0.81127   0.52838   0.80378   0.077001  
         O         O         0.85863   0.62082   0.75879   -0.224321           
         O         O         0.80996   0.71307   0.74340   -0.218754           
         O         O         0.83565   0.24805   0.78885   -0.452245           
         O         O         0.83115   0.08147   0.73956   -0.472953           
         N         N         0.76554   0.22903   0.74633   -0.099064           
         N         N         0.77442   0.20379   0.72886   -0.236895           
         N         N         0.89045   0.12585   0.77732   -0.235733           
         N         N         0.90245   0.10373   0.78592   -0.113709           
         C         C         0.73009   0.21502   0.69144   -0.018201           
         C         C         0.81073   0.21565   0.75717   0.442398  
         C         C         0.81852   0.18628   0.74505   -0.112261           
         C         C         0.79622   0.15090   0.74803   0.204662  
         C         C         0.80983   0.12919   0.75543   -0.229222           
         C         C         0.84496   0.14080   0.75383   -0.104853           
         C         C         0.85367   0.19782   0.74416   -0.224017           
         C         C         0.86706   0.17581   0.74694   0.200625  
         C         C         0.85435   0.11311   0.75619   0.445558  
         C         C         0.93454   0.11493   0.77574   -0.011837           
         C         C         0.95095   0.92004   0.67730   0.064911  
         C         C         0.91210   0.90190   0.62371   -0.132743           
         C         C         0.88997   0.86695   0.62488   -0.140839           
         C         C         0.90571   0.84812   0.67433   0.055995  
         C         C         0.94393   0.86487   0.71307   -0.111415           
         C         C         0.96587   0.90000   0.71533   -0.131822           
         C         C         0.54376   0.26957   0.84866   -0.115429           
         C         C         0.59511   0.30914   0.76531   0.070343  
         C         C         0.52218   0.28050   0.75423   0.064471  
         C         C         0.53809   0.30655   0.66978   -0.133749           
         C         C         0.57957   0.28396   0.85589   -0.135333           
         C         C         0.57368   0.32023   0.67302   -0.137809           
         H         H         0.39222   0.63553   0.07016   0.110025  
         H         H         0.45529   0.66000   0.07499   0.103108  
         H         H         0.35786   0.62787   0.27443   0.109393  
         H         H         0.49259   0.77803   0.42699   0.119515  
         H         H         0.42995   0.75379   0.42818   0.108129  
         H         H         0.68514   0.79074   0.19837   0.124181  
         H         H         0.64695   0.87771   0.30183   0.127954  
         H         H         0.84134   0.88801   0.10523   0.115980  
         H         H         0.90211   0.91210   0.08084   0.102297  
         H         H         0.97429   0.04101   0.23179   0.094088  
         H         H         0.51901   0.71294   0.16333   0.075314  
         O         O         0.61878   0.76271   0.23464   -0.224665           
         O         O         0.71197   0.90374   0.24905   -0.221215           
         O         O         0.24646   0.41081   0.22387   -0.459264           
         O         O         0.08550   0.25710   0.27863   -0.467740           
         N         N         0.23250   0.46526   0.26965   -0.098746           
         N         N         0.21074   0.43278   0.28467   -0.234794           
         N         N         0.12287   0.23653   0.23963   -0.231686           
         N         N         0.10115   0.20462   0.26013   -0.104571           
         C         C         0.22535   0.49048   0.31881   -0.023816           
         C         C         0.21834   0.40578   0.25014   0.449516  
         C         C         0.18952   0.36942   0.25000   -0.105126           
         C         C         0.15444   0.35801   0.25835   0.203592  
         C         C         0.13204   0.32325   0.26067   -0.225712           
         C         C         0.14211   0.29806   0.24891   -0.100740           
         C         C         0.19988   0.34453   0.24188   -0.218416           
         C         C         0.17698   0.30923   0.23804   0.203417  
         C         C         0.11388   0.26230   0.25638   0.448506  
         C         C         0.11198   0.18249   0.24947   -0.022369           
         C         C         0.92168   0.97215   0.20273   0.065002  
         C         C         0.91072   0.99680   0.26609   -0.130114           
         C         C         0.87567   0.98273   0.27187   -0.134202           
         C         C         0.85054   0.94362   0.21813   0.062982  
         C         C         0.86082   0.91844   0.14940   -0.122413           
         C         C         0.89536   0.93242   0.13945   -0.133071           
         C         C         0.25156   0.71579   0.16183   -0.111680           
         C         C         0.30487   0.71167   0.24154   0.068426  
         C         C         0.27669   0.75636   0.24690   0.064437  
         C         C         0.31594   0.77403   0.32802   -0.139357           
         C         C         0.26549   0.69423   0.15861   -0.132648           
         C         C         0.32977   0.75229   0.32699   -0.133234           
         H         H         0.36041   0.76731   0.39831   0.107134  
         H         H         0.33568   0.80542   0.39662   0.100715  
         H         H         0.37006   0.72482   0.21425   0.107785  
         H         H         0.22109   0.70161   0.09646   0.119377  
         H         H         0.24532   0.66288   0.08710   0.107556  
         H         H         0.20458   0.89663   0.25525   0.125372  
         H         H         0.12333   0.76909   0.21343   0.128534  
         H         H         0.09938   0.95393   0.22064   0.113826  
         H         H         0.07376   0.99088   0.19997   0.104423  
         H         H         0.95520   0.93648   0.20009   0.101025  
         H         H         0.28366   0.81008   0.29022   0.073800  
         O         O         0.23602   0.85810   0.26183   -0.223859           
         O         O         0.09305   0.80919   0.22154   -0.218310           
         O         O         0.59489   0.84424   0.37607   -0.459246           
         O         O         0.73782   0.82323   0.15268   -0.472990           
         N         N         0.53891   0.77125   0.29702   -0.096384           
         N         N         0.57116   0.78049   0.27416   -0.236734           
         N         N         0.76066   0.88606   0.22996   -0.229126           
         N         N         0.79277   0.89501   0.20540   -0.108451           
         C         C         0.51411   0.73473   0.23388   -0.022697           
         C         C         0.59802   0.81770   0.31364   0.448826  
         C         C         0.63159   0.82330   0.27184   -0.104407           
         C         C         0.64199   0.79780   0.23964   0.200701  
         C         C         0.67542   0.80878   0.21789   -0.226760           
         C         C         0.69937   0.84396   0.22162   -0.110489           
         C         C         0.65547   0.85859   0.27428   -0.226895           
         C         C         0.68870   0.86922   0.24848   0.206350  
         C         C         0.73404   0.84957   0.19671   0.447366  
         C         C         0.81527   0.93020   0.23929   -0.017281           
         C         C         0.02463   0.95534   0.24848   0.074274  
         C         C         0.00532   0.92203   0.27525   -0.115442           
         C         C         0.01968   0.90096   0.28502   -0.138007           
         C         C         0.05402   0.91257   0.26834   0.060905  
         C         C         0.07317   0.94537   0.23734   -0.122231           
         C         C         0.05860   0.96601   0.22690   -0.132088           
         C         C         0.27248   0.53119   0.20144   -0.120153           
         C         C         0.28925   0.59540   0.27690   0.066700  
         C         C         0.24699   0.52565   0.30098   0.062537  
         C         C         0.24276   0.55538   0.38549   -0.137397           
         C         C         0.29290   0.56520   0.18925   -0.134763           
         C         C         0.26380   0.58974   0.37597   -0.137204           
         H         H         0.26095   0.61281   0.44921   0.112185  
         H         H         0.22296   0.55142   0.46109   0.103799  
         H         H         0.27150   0.64446   0.26580   0.105090  
         H         H         0.27560   0.50824   0.13181   0.119585  
         H         H         0.31174   0.56850   0.10702   0.109514  
         H         H         0.10558   0.31386   0.27453   0.125395  
         H         H         0.22760   0.35514   0.24395   0.128209  
         H         H         0.04917   0.15650   0.32503   0.116244  
         H         H         0.01175   0.09630   0.34634   0.103805  
         H         H         0.06356   0.02806   0.30282   0.098502  
         H         H         0.20341   0.48688   0.37780   0.078167  
         O         O         0.14364   0.38219   0.26706   -0.226688           
         O         O         0.18746   0.28480   0.22746   -0.219003           
         O         O         0.15848   0.74675   0.18252   -0.455953           
         O         O         0.16655   0.91575   0.24352   -0.474219           
         N         N         0.22835   0.76597   0.21864   -0.095532           
         N         N         0.21862   0.79033   0.22793   -0.238552           
         N         N         0.11135   0.87782   0.26882   -0.238711           
         N         N         0.10053   0.90103   0.26518   -0.108522           
         C         C         0.26319   0.77998   0.25329   -0.020669           
         C         C         0.18292   0.77888   0.20997   0.446651  
         C         C         0.17572   0.80867   0.22514   -0.105962           
         C         C         0.20003   0.84558   0.24290   0.198877  
         C         C         0.18742   0.86831   0.24476   -0.226784           
         C         C         0.15178   0.85667   0.23744   -0.108627           
         C         C         0.14025   0.79719   0.22054   -0.223541           
         C         C         0.12795   0.82031   0.22632   0.201648  
         C         C         0.14417   0.88605   0.24793   0.451724  
         C         C         0.06872   0.89042   0.27890   -0.018313           
         C         C         0.04775   0.07839   0.29632   0.063770  
         C         C         0.08171   0.09016   0.27265   -0.124680           
         C         C         0.10281   0.12421   0.26101   -0.141229           
         C         C         0.09099   0.14825   0.27611   0.056273  
         C         C         0.05831   0.13792   0.31288   -0.111115           
         C         C         0.03738   0.10387   0.32382   -0.133226           
         C         C         0.47019   0.74686   0.34624   -0.110722           
         C         C         0.40588   0.69255   0.24526   0.067082  
         C         C         0.47804   0.72085   0.24541   0.063761  
         C         C         0.44961   0.68058   0.15031   -0.138251           
         C         C         0.43491   0.73296   0.34529   -0.131713           
         C         C         0.41416   0.66678   0.14952   -0.135225           
         H         H         0.09041   0.07116   0.24415   0.105824  
         H         H         0.12762   0.13116   0.22875   0.112522  
         H         H         0.14767   0.24387   0.22672   0.237791  
         H         H         0.18753   0.42642   0.31608   0.240728  
         H         H         0.25504   0.27328   0.20727   0.137035  
         H         H         0.61045   0.68379   0.22277   0.136245  
         H         H         0.13704   0.18848   0.22022   0.082701  
         C         C         0.03435   0.01611   0.27153   -0.159273           
         C         C         0.02216   0.03935   0.27163   0.066228  
         C         C         0.34672   0.64408   0.25765   -0.181816           
         C         C         0.36832   0.67823   0.24464   0.076359  
         C         C         0.22748   0.26455   0.20706   -0.413082           
         C         C         0.22305   0.29611   0.21440   0.080509  
         C         C         0.60254   0.70361   0.23496   -0.413834           
         C         C         0.63184   0.73874   0.22351   0.080701  
         H         H         0.93023   0.02785   0.32359   0.101747  
         H         H         0.86837   0.00270   0.32736   0.111554  
         H         H         0.75388   0.90524   0.25626   0.241118  
         H         H         0.57657   0.76033   0.23064   0.239933  
         H         H         0.72130   0.98325   0.26332   0.137400  
         H         H         0.31595   0.92800   0.28237   0.138061  
         H         H         0.80878   0.95121   0.28887   0.084331  
         C         C         0.98473   0.02414   0.24197   -0.174303           
         C         C         0.96010   0.98713   0.21634   0.069586  
         C         C         0.35384   0.69944   0.23438   -0.186225           
         C         C         0.31912   0.68816   0.24321   0.070776  
         C         C         0.72932   0.96358   0.25488   -0.416150           
         C         C         0.70035   0.92905   0.27141   0.078945  
         C         C         0.29664   0.90054   0.27983   -0.418463           
         C         C         0.25994   0.89488   0.26652   0.085356  
         H         H         0.97860   0.91191   0.28772   0.107094  
         H         H         0.00374   0.87493   0.30180   0.115500  
         H         H         0.09426   0.85229   0.26975   0.245105  
         H         H         0.23708   0.81773   0.25017   0.238900  
         H         H         0.01324   0.73729   0.19326   0.133746  
         H         H         0.07499   0.39291   0.27365   0.136898  
         H         H         0.05179   0.86466   0.29749   0.085775  
         C         C         0.97361   0.96489   0.21557   -0.153482           
         C         C         0.01048   0.97864   0.24199   0.064704  
         C         C         0.29829   0.65380   0.25648   -0.186322           
         C         C         0.31145   0.63137   0.26186   0.069882  
         C         C         0.03173   0.76540   0.19960   -0.416634           
         C         C         0.06856   0.77173   0.20809   0.079549  
         C         C         0.10263   0.40113   0.27701   -0.417070           
         C         C         0.10791   0.37039   0.27842   0.082346  
         H         H         0.89917   0.91570   0.58461   0.108952  
         H         H         0.86028   0.85443   0.58900   0.112527  
         H         H         0.84731   0.75218   0.71917   0.237892  
         H         H         0.81867   0.57990   0.76144   0.240661  
         H         H         0.74296   0.72534   0.77115   0.141859  
         H         H         0.38278   0.31173   0.70911   0.137551  
         H         H         0.85501   0.80344   0.68102   0.080455  
         C         C         0.96327   0.98290   0.71985   -0.152061           
         C         C         0.97572   0.95955   0.70728   0.067131  
         C         C         0.65477   0.35778   0.75873   -0.181114           
         C         C         0.63198   0.32245   0.75813   0.072864  
         C         C         0.76957   0.73278   0.75969   -0.416440           
         C         C         0.77435   0.70157   0.75480   0.082750  
         C         C         0.39196   0.29312   0.70679   -0.414793           
         C         C         0.36343   0.25865   0.72563   0.085258  
         H         H         0.07774   0.98311   0.82369   0.104671  
         H         H         0.13947   0.00697   0.81640   0.110533  
         H         H         0.24760   0.09557   0.76111   0.240371  
         H         H         0.42040   0.23911   0.73847   0.240956  
         H         H         0.28442   0.02603   0.83432   0.136173  
         H         H         0.68421   0.07350   0.75998   0.138044  
         H         H         0.19366   0.05102   0.76875   0.085251  
         C         C         0.01286   0.97526   0.73149   -0.171824           
         C         C         0.03761   0.01320   0.77124   0.063341  
         C         C         0.64454   0.29924   0.74560   -0.187635           
         C         C         0.67869   0.31043   0.72966   0.072161  
         C         C         0.27551   0.04446   0.82317   -0.413571           
         C         C         0.30532   0.07877   0.80839   0.083501  
         C         C         0.70334   0.10125   0.76503   -0.415716           
         C         C         0.73891   0.10521   0.76522   0.080454  
         H         H         0.01821   0.08554   0.70817   0.104606  
         H         H         0.99611   0.12606   0.71726   0.111931  
         H         H         0.90668   0.15166   0.77656   0.242287  
         H         H         0.75557   0.17637   0.70515   0.241614  
         H         H         0.98051   0.25480   0.74890   0.137209  
         H         H         0.92889   0.61270   0.75350   0.135503  
         H         H         0.95103   0.14044   0.75343   0.083715  
         C         C         0.02429   0.03572   0.78707   -0.149114           
         C         C         0.98727   0.02107   0.75989   0.060368  
         C         C         0.70004   0.34506   0.72193   -0.186673           
         C         C         0.68869   0.36934   0.73791   0.074707  
         C         C         0.96049   0.22720   0.74255   -0.418866           
         C         C         0.92525   0.22352   0.74807   0.082460  
         C         C         0.90167   0.60402   0.75951   -0.414325           
         C         C         0.89518   0.63394   0.75656   0.078063 

