
##########################################################################
#               Crystallographic Information Format file
#               Produced by PyCifRW module
#
#  This is a CIF file.  CIF has been adopted by the International
#  Union of Crystallography as the standard for data archiving and
#  transmission.
#
#  For information on this file format, follow the CIF links at
#  http://www.iucr.org
##########################################################################

data_image0

_cell_length_a                          45.3765
_cell_length_b                          45.1759
_cell_length_c                          8.14823
_cell_angle_alpha                       63.0735
_cell_angle_beta                        122.195
_cell_angle_gamma                       120.228
_symmetry_space_group_name_H-M          'P 1'
_space_group_name_Hall                  'P 1'
loop_
  _atom_site_type_symbol
  _atom_site_label
  _atom_site_fract_x
  _atom_site_fract_y
  _atom_site_fract_z
  _atom_site_charge
         H         H         0.56832   0.62066   0.16407   0.121742  
         H         H         0.58730   0.57331   0.20110   0.097887  
         H         H         0.38020   0.90970   0.17885   0.131878  
         H         H         0.42331   0.97336   0.15922   0.063847  
         H         H         0.09788   0.43670   0.17161   0.132929  
         H         H         0.03437   0.42303   0.14307   0.070728  
         H         H         0.45451   0.35192   0.12196   0.131315  
         H         H         0.43752   0.40005   0.08252   0.059703  
         H         H         0.64222   0.07181   0.10858   0.127360  
         H         H         0.59745   0.00873   0.12566   0.076210  
         H         H         0.93545   0.55011   0.09694   0.129741  
         H         H         0.00002   0.56871   0.11487   0.082379  
         H         H         0.44525   0.36564   0.86238   0.126669  
         H         H         0.42499   0.41341   0.82036   0.076699  
         H         H         0.61976   0.08224   0.84205   0.134174  
         H         H         0.57701   0.01846   0.85921   0.063702  
         H         H         0.91859   0.56362   0.83088   0.125909  
         H         H         0.98157   0.57978   0.84836   0.071148  
         H         H         0.54864   0.62855   0.89916   0.125231  
         H         H         0.57043   0.58346   0.93448   0.063210  
         H         H         0.35834   0.91948   0.91269   0.127151  
         H         H         0.40250   0.98298   0.89254   0.071859  
         H         H         0.08231   0.45189   0.90569   0.129037  
         H         H         0.01784   0.43554   0.87730   0.070019  
         H         H         0.44474   0.81122   0.03385   0.120541  
         H         H         0.42320   0.74983   0.02205   0.104495  
         H         H         0.34233   0.78962   0.04795   0.106462  
         H         H         0.32051   0.72890   0.03613   0.106259  
         H         H         0.39048   0.84624   0.08678   0.080798  
         H         H         0.43318   0.90265   0.08306   0.251062  
         H         H         0.40515   0.69955   0.02143   0.097409  
         H         H         0.57003   0.53007   0.05711   0.135338  
         H         H         0.59757   0.63921   0.03399   0.138493  
         C         C         0.47083   0.46852   0.01359   -0.226511           
         C         C         0.48251   0.50261   0.03061   -0.111931           
         C         C         0.45427   0.50965   0.03817   0.454943  
         C         C         0.51857   0.52576   0.03985   0.202705  
         C         C         0.45216   0.58776   0.02518   -0.027243           
         C         C         0.37667   0.68340   0.00618   -0.164994           
         C         C         0.35542   0.69719   0.01012   0.066809  
         C         C         0.82160   0.42142   0.00811   0.072090  
         C         C         0.74858   0.37678   0.99389   0.063247  
         C         C         0.80619   0.38683   0.98575   -0.101204           
         C         C         0.79997   0.43325   0.02260   -0.135020           
         C         C         0.77054   0.36538   0.97745   -0.124880           
         C         C         0.76441   0.41142   0.01658   -0.134339           
         C         C         0.56699   0.58339   0.05841   0.073605  
         C         C         0.57049   0.61999   0.03795   -0.412639           
         O         O         0.42488   0.48602   0.04732   -0.461271           
         O         O         0.53002   0.55988   0.04922   -0.213871           
         N         N         0.46392   0.54412   0.03538   -0.230328           
         N         N         0.44117   0.55423   0.04190   -0.090634           
         H         H         0.18999   0.62363   0.93833   0.127036  
         H         H         0.25187   0.66093   0.93284   0.107628  
         H         H         0.20671   0.53202   0.01279   0.098440  
         H         H         0.26952   0.56857   0.01968   0.107167  
         H         H         0.14801   0.52493   0.98952   0.069803  
         H         H         0.09622   0.51679   -0.00215  0.232425  
         H         H         0.30381   0.68378   0.02141   0.097554  
         H         H         0.46265   0.01886   0.02556   0.128904  
         H         H         0.35515   0.93940   0.04465   0.134435  
         C         C         0.52176   0.98417   0.00061   -0.217080           
         C         C         0.48775   0.96006   0.01412   -0.091980           
         C         C         0.47846   0.92367   0.00658   0.455914  
         C         C         0.46574   0.97274   0.02109   0.206529  
         C         C         0.40705   0.84084   0.04973   -0.025313           
         C         C         0.31968   0.67469   0.00363   -0.183001           
         C         C         0.30404   0.64023   0.98191   0.070089  
         C         C         0.58409   0.38676   0.97748   0.068095  
         C         C         0.62987   0.35871   0.99440   0.067069  
         C         C         0.62187   0.40660   0.01342   -0.106773           
         C         C         0.56967   0.35291   0.94900   -0.145695           
         C         C         0.64407   0.39262   0.02386   -0.119039           
         C         C         0.59197   0.33933   0.95608   -0.120754           
         C         C         0.40855   0.96192   0.03071   0.077856  
         C         C         0.37354   0.93069   0.04217   -0.415986           
         O         O         0.49788   0.91782   0.97018   -0.455954           
         O         O         0.43210   0.94885   0.03298   -0.221357           
         N         N         0.44659   0.89756   0.03498   -0.233036           
         N         N         0.43656   0.86491   0.01938   -0.100252           
         H         H         0.38814   0.55235   0.08858   0.124872  
         H         H         0.35103   0.57856   0.07765   0.109894  
         H         H         0.46684   0.65634   0.96426   0.097945  
         H         H         0.42876   0.68298   0.93999   0.105030  
         H         H         0.47803   0.60655   0.00381   0.070547  
         H         H         0.48879   0.56201   0.02514   0.235354  
         H         H         0.31372   0.60181   0.94729   0.101028  
         H         H         0.98630   0.43934   0.00209   0.133744  
         H         H         0.06384   0.40638   0.02043   0.138399  
         C         C         0.02081   0.53696   0.99034   -0.230500           
         C         C         0.04468   0.52538   0.99413   -0.108717           
         C         C         0.08040   0.55426   0.98138   0.442833  
         C         C         0.03248   0.48930   0.00264   0.200093  
         C         C         0.15757   0.55315   0.98059   -0.019554           
         C         C         0.32574   0.62788   0.97201   -0.168064           
         C         C         0.36262   0.64855   0.99126   0.075926  
         C         C         0.61618   0.18414   -0.00215  0.057499  
         C         C         0.64673   0.25682   0.00035   0.064493  
         C         C         0.59587   0.19956   -0.00235  -0.120809           
         C         C         0.65179   0.20569   -0.00280  -0.134782           
         C         C         0.61086   0.23483   -0.00091  -0.124854           
         C         C         0.66665   0.24115   -0.00135  -0.129232           
         C         C         0.04262   0.44016   0.01585   0.076365  
         C         C         0.07360   0.43353   0.02991   -0.416717           
         O         O         0.08690   0.58519   0.96424   -0.435532           
         O         O         0.05627   0.47688   0.01583   -0.223993           
         N         N         0.10466   0.54300   0.99034   -0.244261           
         N         N         0.13769   0.56627   0.97889   -0.080747           
         H         H         0.56814   0.18327   0.99594   0.117758  
         H         H         0.59410   0.24549   -0.00109  0.107041  
         H         H         0.66774   0.19452   0.99335   0.103211  
         H         H         0.69409   0.25690   0.99597   0.107757  
         H         H         0.61486   0.13865   0.95790   0.077839  
         H         H         0.56936   0.08572   0.96081   0.242524  
         H         H         0.61472   0.29137   0.01976   0.099909  
         H         H         0.44265   0.45205   0.00241   0.129090  
         H         H         0.40830   0.34755   0.94008   0.138553  
         C         C         0.54149   0.51381   0.03998   -0.206669           
         C         C         0.52988   0.47979   0.02322   -0.095202           
         C         C         0.55940   0.47240   0.02936   0.447282  
         C         C         0.49340   0.45692   0.00840   0.199547  
         C         C         0.56020   0.40001   0.97181   -0.017045           
         C         C         0.64122   0.30856   0.00825   -0.180107           
         C         C         0.66201   0.29446   0.00284   0.069275  
         C         C         0.19387   0.57533   0.97473   0.064226  
         C         C         0.26618   0.61791   0.97642   0.068959  
         C         C         0.20763   0.61201   0.95438   -0.104478           
         C         C         0.21670   0.56038   0.99518   -0.139450           
         C         C         0.24271   0.63264   0.95334   -0.130829           
         C         C         0.25224   0.58119   -0.00207  -0.131395           
         C         C         0.44329   0.40108   0.96444   0.074310  
         C         C         0.43762   0.36446   0.97295   -0.414695           
         O         O         0.59121   0.49392   0.06134   -0.444990           
         O         O         0.48145   0.42290   0.99372   -0.222216           
         N         N         0.54808   0.44031   0.99399   -0.240733           
         N         N         0.57278   0.43089   0.00052   -0.087899           
         H         H         0.82259   0.37747   0.97300   0.122045  
         H         H         0.75933   0.33927   0.95444   0.105202  
         H         H         0.81141   0.45972   0.04210   0.098095  
         H         H         0.74925   0.42154   0.03365   0.107456  
         H         H         0.86826   0.47141   0.03368   0.069696  
         H         H         0.92135   0.48466   0.00763   0.237674  
         H         H         0.71436   0.30666   0.00203   0.099892  
         H         H         0.53734   0.97361   0.98990   0.128957  
         H         H         0.64488   0.05280   0.97021   0.134580  
         C         C         0.47828   0.00829   0.01498   -0.219851           
         C         C         0.51255   0.03240   0.00334   -0.096136           
         C         C         0.52288   0.06895   0.01504   0.458977  
         C         C         0.53438   0.01960   0.99548   0.200960  
         C         C         0.60035   0.14744   0.99048   -0.025163           
         C         C         0.69728   0.31715   0.00010   -0.182384           
         C         C         0.71113   0.35319   0.99446   0.072261  
         C         C         0.43005   0.60238   0.02518   0.064005  
         C         C         0.38610   0.63319   0.00334   0.067095  
         C         C         0.39681   0.58097   0.05559   -0.105340           
         C         C         0.44133   0.63923   0.98912   -0.146563           
         C         C         0.37579   0.59612   0.04638   -0.121211           
         C         C         0.41967   0.65428   0.97647   -0.137199           
         C         C         0.59173   0.02985   0.98770   0.079321  
         C         C         0.62670   0.06110   0.97708   -0.415056           
         O         O         0.50352   0.07596   0.04552   -0.459599           
         O         O         0.56812   0.04314   0.98290   -0.219244           
         N         N         0.55629   0.09314   -0.00103  -0.228910           
         N         N         0.56962   0.12638   0.01656   -0.109432           
         H         H         0.63337   0.43281   0.03629   0.124823  
         H         H         0.67336   0.40828   0.05853   0.103093  
         H         H         0.54053   0.33704   0.92076   0.095701  
         H         H         0.57931   0.31341   0.92802   0.102224  
         H         H         0.53115   0.38252   0.94464   0.066280  
         H         H         0.52140   0.42329   0.97508   0.236589  
         H         H         0.69774   0.39431   0.97686   0.101180  
         H         H         0.03161   0.56480   0.98634   0.134771  
         H         H         0.95182   0.59556   0.97261   0.140186  
         C         C         0.99731   0.46703   0.00091   -0.227604           
         C         C         0.97339   0.47852   -0.00328  -0.112814           
         C         C         0.93719   0.44956   0.00136   0.435202  
         C         C         0.98582   0.51446   0.99209   0.207435  
         C         C         0.85842   0.44509   0.01279   -0.006184           
         C         C         0.68844   0.36629   0.99082   -0.177311           
         C         C         0.65360   0.34439   0.00046   0.075961  
         C         C         0.39498   0.80499   0.03907   0.057316  
         C         C         0.36972   0.73376   0.02630   0.065114  
         C         C         0.41751   0.79278   0.03407   -0.115245           
         C         C         0.35997   0.78096   0.04053   -0.132256           
         C         C         0.40512   0.75802   0.02840   -0.131860           
         C         C         0.34772   0.74631   0.03387   -0.133575           
         C         C         0.97474   0.56290   0.98026   0.075302  
         C         C         0.94327   0.56825   0.96958   -0.416250           
         O         O         0.93076   0.41908   0.00958   -0.445967           
         O         O         0.96211   0.52604   0.98500   -0.222434           
         N         N         0.91239   0.45951   -0.00363  -0.240391           
         N         N         0.87861   0.43526   0.99402   -0.090275           
         H         H         0.55643   0.63889   0.62266   0.126803  
         H         H         0.57814   0.59350   0.65914   0.076015  
         H         H         0.38115   0.91700   0.67995   0.130556  
         H         H         0.42225   0.98091   0.65202   0.064298  
         H         H         0.08043   0.43563   0.66156   0.124787  
         H         H         0.01723   0.42007   0.64251   0.071778  
         H         H         0.44631   0.36814   0.59276   0.122155  
         H         H         0.42594   0.41309   0.56772   0.059760  
         H         H         0.64342   0.07670   0.63387   0.126123  
         H         H         0.59628   0.01530   0.62153   0.072292  
         H         H         0.91851   0.54813   0.59418   0.128039  
         H         H         0.98253   0.56571   0.61241   0.070907  
         H         H         0.43777   0.38501   0.33398   0.119095  
         H         H         0.41861   0.43143   0.30866   0.096943  
         H         H         0.62375   0.09107   0.36805   0.132732  
         H         H         0.57828   0.02812   0.35522   0.061466  
         H         H         0.90140   0.56198   0.32762   0.133917  
         H         H         0.96455   0.57720   0.34583   0.071579  
         H         H         0.53343   0.64377   0.35887   0.132465  
         H         H         0.55526   0.59873   0.39576   0.061257  
         H         H         0.35923   0.92512   0.41375   0.127603  
         H         H         0.40208   0.98952   0.38569   0.076848  
         H         H         0.06361   0.44940   0.39536   0.129395  
         H         H         -0.00064  0.43185   0.37594   0.082260  
         H         H         0.43025   0.81818   0.48759   0.116642  
         H         H         0.40272   0.75675   0.46464   0.104166  
         H         H         0.33775   0.80219   0.57898   0.101298  
         H         H         0.31105   0.74007   0.56815   0.105891  
         H         H         0.38932   0.85939   0.59149   0.076514  
         H         H         0.43311   0.91288   0.57280   0.243739  
         H         H         0.38995   0.70632   0.54785   0.099757  
         H         H         0.56057   0.54634   0.55058   0.131686  
         H         H         0.58279   0.65687   0.47661   0.137881  
         C         C         0.46225   0.48360   0.52021   -0.201172           
         C         C         0.47328   0.51787   0.53127   -0.098654           
         C         C         0.44424   0.52462   0.53346   0.448748  
         C         C         0.50925   0.54127   0.53940   0.201378  
         C         C         0.43930   0.60181   0.51414   -0.021294           
         C         C         0.36065   0.69125   0.51463   -0.177651           
         C         C         0.33839   0.70602   0.50097   0.070035  
         C         C         0.80431   0.42622   0.50033   0.059630  
         C         C         0.73146   0.38426   0.49280   0.067397  
         C         C         0.78708   0.39158   0.47569   -0.101771           
         C         C         0.78408   0.43983   0.51450   -0.137782           
         C         C         0.75149   0.37144   0.47050   -0.136561           
         C         C         0.74849   0.41929   0.51145   -0.135745           
         C         C         0.55479   0.60056   0.52455   0.077397  
         C         C         0.55685   0.63713   0.49392   -0.417281           
         O         O         0.41442   0.50110   0.53432   -0.452852           
         O         O         0.52031   0.57566   0.54539   -0.220351           
         N         N         0.45368   0.55887   0.53465   -0.242224           
         N         N         0.42999   0.56832   0.53755   -0.092710           
         H         H         0.17468   0.62480   0.48292   0.120517  
         H         H         0.23620   0.66428   0.48035   0.104192  
         H         H         0.18839   0.54099   0.44476   0.096172  
         H         H         0.24879   0.58033   0.43155   0.102994  
         H         H         0.13270   0.52809   0.47136   0.068058  
         H         H         0.07957   0.51508   0.49614   0.236744  
         H         H         0.28398   0.69569   0.46711   0.103647  
         H         H         0.46300   0.02553   0.52923   0.130503  
         H         H         0.35426   0.94515   0.53771   0.135710  
         C         C         0.52172   0.99171   0.49518   -0.223829           
         C         C         0.48781   0.96728   0.51039   -0.097230           
         C         C         0.47791   0.93067   0.50174   0.456742  
         C         C         0.46608   0.97977   0.52120   0.201274  
         C         C         0.40245   0.85116   0.54650   -0.020309           
         C         C         0.30135   0.68465   0.47605   -0.184874           
         C         C         0.28642   0.64942   0.46426   0.071340  
         C         C         0.56968   0.39893   0.47156   0.070133  
         C         C         0.61277   0.36836   0.48317   0.068657  
         C         C         0.60776   0.41719   0.51190   -0.091780           
         C         C         0.55342   0.36552   0.43320   -0.145299           
         C         C         0.62854   0.40199   0.51911   -0.118088           
         C         C         0.57441   0.35068   0.43792   -0.139301           
         C         C         0.40821   0.96893   0.52634   0.078189  
         C         C         0.37363   0.93711   0.53954   -0.414707           
         O         O         0.49692   0.92398   0.46676   -0.459340           
         O         O         0.43263   0.95591   0.53654   -0.222175           
         N         N         0.44553   0.90589   0.52820   -0.228259           
         N         N         0.43206   0.87270   0.50953   -0.109770           
         H         H         0.37595   0.56383   0.58236   0.125477  
         H         H         0.33715   0.58759   0.57938   0.107222  
         H         H         0.45073   0.66978   0.44760   0.099061  
         H         H         0.41153   0.69376   0.43535   0.101234  
         H         H         0.46441   0.62165   0.48726   0.068375  
         H         H         0.47822   0.57714   0.52190   0.235660  
         H         H         0.29804   0.61020   0.44823   0.101545  
         H         H         0.96756   0.43584   0.50136   0.135638  
         H         H         0.04679   0.40403   0.51837   0.139339  
         C         C         0.00269   0.53349   0.49167   -0.223023           
         C         C         0.02639   0.52193   0.49403   -0.113426           
         C         C         0.06185   0.55112   0.47884   0.437917  
         C         C         0.01394   0.48584   0.50077   0.205011  
         C         C         0.14119   0.55542   0.47407   -0.008395           
         C         C         0.30929   0.63660   0.46725   -0.178382           
         C         C         0.34652   0.65694   0.49372   0.075823  
         C         C         0.60528   0.19463   0.47938   0.055363  
         C         C         0.63121   0.26578   0.49493   0.066875  
         C         C         0.58490   0.20595   0.50816   -0.116712           
         C         C         0.63854   0.21951   0.45662   -0.131644           
         C         C         0.59763   0.24065   0.51532   -0.132012           
         C         C         0.65107   0.25423   0.46369   -0.140881           
         C         C         0.02450   0.43712   0.51203   0.072633  
         C         C         0.05571   0.43134   0.52254   -0.413760           
         O         O         0.06717   0.58214   0.45416   -0.445483           
         O         O         0.03763   0.47392   0.50999   -0.221397           
         N         N         0.08731   0.54095   0.49195   -0.240389           
         N         N         0.12013   0.56576   0.48216   -0.088996           
         H         H         0.55906   0.18692   0.52519   0.119787  
         H         H         0.58142   0.24832   0.54008   0.102865  
         H         H         0.65440   0.21160   0.43022   0.103670  
         H         H         0.67620   0.27273   0.43820   0.106152  
         H         H         0.60694   0.15404   0.41071   0.079844  
         H         H         0.56562   0.09727   0.42722   0.251140  
         H         H         0.59556   0.30023   0.49468   0.100684  
         H         H         0.43427   0.46671   0.51165   0.127352  
         H         H         0.40021   0.36430   0.41070   0.139906  
         C         C         0.53238   0.52966   0.53937   -0.229077           
         C         C         0.52103   0.49542   0.52513   -0.108224           
         C         C         0.54968   0.48871   0.51860   0.452033  
         C         C         0.48506   0.47201   0.51696   0.203696  
         C         C         0.54763   0.41382   0.46987   -0.024107           
         C         C         0.62311   0.31719   0.49618   -0.169902           
         C         C         0.64498   0.30288   0.50181   0.069693  
         C         C         0.17704   0.57985   0.46583   0.070093  
         C         C         0.24840   0.62603   0.45662   0.065068  
         C         C         0.19125   0.61529   0.47263   -0.099402           
         C         C         0.19882   0.56819   0.45144   -0.136204           
         C         C         0.22605   0.63747   0.46937   -0.126781           
         C         C         0.23341   0.59077   0.44474   -0.131601           
         C         C         0.43438   0.41687   0.45365   0.073992  
         C         C         0.42946   0.38159   0.44763   -0.409331           
         O         O         0.58007   0.51186   0.52474   -0.455945           
         O         O         0.47359   0.43785   0.50748   -0.218201           
         N         N         0.53880   0.45532   0.50112   -0.234706           
         N         N         0.56203   0.44496   0.50046   -0.087030           
         H         H         0.80229   0.38113   0.46099   0.121601  
         H         H         0.73893   0.34517   0.44681   0.106633  
         H         H         0.79678   0.46660   0.53257   0.099419  
         H         H         0.73438   0.43035   0.53042   0.108507  
         H         H         0.85356   0.47426   0.52937   0.070019  
         H         H         0.90440   0.48328   0.50659   0.232613  
         H         H         0.69876   0.31421   0.52433   0.100437  
         H         H         0.53705   0.98149   0.48005   0.128845  
         H         H         0.64667   0.06003   0.48653   0.133914  
         C         C         0.47852   0.01517   0.51632   -0.219651           
         C         C         0.51256   0.03943   0.50340   -0.090656           
         C         C         0.52192   0.07553   0.51613   0.453383  
         C         C         0.53457   0.02707   0.49380   0.206477  
         C         C         0.59239   0.15890   0.46391   -0.021520           
         C         C         0.68088   0.32523   0.50972   -0.181742           
         C         C         0.69442   0.36132   0.49883   0.065862  
         C         C         0.41601   0.61502   0.51435   0.061542  
         C         C         0.37070   0.64267   0.50419   0.072386  
         C         C         0.38333   0.59226   0.54932   -0.109829           
         C         C         0.42586   0.65167   0.47769   -0.144094           
         C         C         0.36151   0.60589   0.54525   -0.122130           
         C         C         0.40361   0.66519   0.47153   -0.126085           
         C         C         0.59224   0.03778   0.48942   0.080491  
         C         C         0.62858   0.06822   0.49508   -0.414518           
         O         O         0.50285   0.08079   0.55829   -0.456741           
         O         O         0.56850   0.05087   0.48527   -0.223412           
         N         N         0.55342   0.10185   0.48504   -0.230864           
         N         N         0.56433   0.13427   0.50747   -0.105231           
         H         H         0.62049   0.44322   0.53907   0.123042  
         H         H         0.65809   0.41643   0.55690   0.106176  
         H         H         0.52389   0.35109   0.39988   0.091482  
         H         H         0.56068   0.32516   0.40311   0.102540  
         H         H         0.51828   0.39760   0.44232   0.068506  
         H         H         0.51212   0.43872   0.48577   0.232394  
         H         H         0.68062   0.40273   0.47263   0.100832  
         H         H         0.01354   0.56128   0.48831   0.132290  
         H         H         0.93523   0.59354   0.47189   0.138789  
         C         C         0.97876   0.46356   0.50066   -0.234784           
         C         C         0.95489   0.47532   0.49569   -0.108011           
         C         C         0.91820   0.44689   0.49738   0.442109  
         C         C         0.96755   0.51128   0.49089   0.199578  
         C         C         0.84173   0.44751   0.50883   -0.011827           
         C         C         0.67136   0.37463   0.48907   -0.165869           
         C         C         0.63594   0.35300   0.49195   0.077273  
         C         C         0.38594   0.81477   0.53276   0.057951  
         C         C         0.35433   0.74302   0.51409   0.061953  
         C         C         0.40403   0.80086   0.50408   -0.126129           
         C         C         0.35187   0.79227   0.55229   -0.135459           
         C         C         0.38840   0.76605   0.49334   -0.129177           
         C         C         0.33663   0.75711   0.54446   -0.130647           
         C         C         0.95726   0.56041   0.47658   0.076326  
         C         C         0.92617   0.56630   0.46627   -0.416889           
         O         O         0.91036   0.41660   0.49705   -0.437707           
         O         O         0.94400   0.52356   0.48081   -0.223332           
         N         N         0.89464   0.45784   0.49734   -0.241828           
         N         N         0.86029   0.43526   0.49276   -0.088084 

