
##########################################################################
#               Crystallographic Information Format file
#               Produced by PyCifRW module
#
#  This is a CIF file.  CIF has been adopted by the International
#  Union of Crystallography as the standard for data archiving and
#  transmission.
#
#  For information on this file format, follow the CIF links at
#  http://www.iucr.org
##########################################################################

data_image0

_cell_length_a                          22.4831
_cell_length_b                          22.6166
_cell_length_c                          8.28845
_cell_angle_alpha                       61.8907
_cell_angle_beta                        123.701
_cell_angle_gamma                       121.025
_symmetry_space_group_name_H-M          'P 1'
_space_group_name_Hall                  'P 1'
loop_
  _atom_site_type_symbol
  _atom_site_label
  _atom_site_fract_x
  _atom_site_fract_y
  _atom_site_fract_z
  _atom_site_charge
         C         C         0.73825   0.37901   0.26127   0.062286  
         C         C         0.69217   0.40321   0.26132   -0.126818           
         C         C         0.81241   0.42898   0.25804   0.085749  
         N         N         0.85704   0.40999   0.25492   -0.302113           
         C         C         0.92874   0.45787   0.25494   0.192639  
         C         C         0.97084   0.43009   0.24885   -0.140117           
         C         C         0.04328   0.47086   0.25251   -0.169582           
         H         H         0.71119   0.45842   0.26040   0.110187  
         H         H         0.82622   0.48337   0.25699   0.065815  
         H         H         0.94414   0.37531   0.23874   0.119985  
         H         H         0.07290   0.44753   0.24359   0.113189  
         C         C         0.61953   0.35697   0.25972   0.065705  
         C         C         0.59330   0.28617   0.25690   -0.153994           
         C         C         0.57021   0.38153   0.25688   0.073135  
         N         N         0.59293   0.44522   0.26919   -0.296009           
         C         C         0.54505   0.46854   0.26505   0.204840  
         C         C         0.57410   0.54077   0.26435   -0.135225           
         C         C         0.53174   0.57057   0.25709   -0.164973           
         H         H         0.53728   0.24970   0.25512   0.111616  
         H         H         0.51291   0.34213   0.24192   0.066237  
         H         H         0.63114   0.57275   0.26863   0.112142  
         H         H         0.55667   0.62651   0.25766   0.108708  
         C         C         0.63895   0.26095   0.25680   0.054812  
         C         C         0.71098   0.30748   0.25906   -0.144142           
         C         C         0.61187   0.18809   0.24614   0.072330  
         N         N         0.54879   0.14037   0.25894   -0.287559           
         C         C         0.52711   0.07090   0.25293   0.202882  
         C         C         0.44853   0.03232   0.17049   -0.143228           
         C         C         0.42272   0.96365   0.15682   -0.170619           
         H         H         0.74668   0.28997   0.25390   0.111923  
         H         H         0.64787   0.17688   0.22131   0.068277  
         H         H         0.40881   0.05826   0.11498   0.116326  
         H         H         0.36204   0.93534   0.08575   0.108522  
         C         C         0.26556   0.62102   0.24907   0.061579  
         C         C         0.31093   0.59678   0.24674   -0.124066           
         C         C         0.19177   0.57109   0.25270   0.086127  
         N         N         0.14838   0.58987   0.26148   -0.303183           
         C         C         0.07687   0.54233   0.26201   0.194718  
         C         C         0.03501   0.57014   0.26906   -0.142609           
         C         C         0.96260   0.52926   0.26565   -0.167803           
         H         H         0.29172   0.54143   0.24901   0.110031  
         H         H         0.17721   0.51733   0.24783   0.066562  
         H         H         0.06186   0.62494   0.27960   0.122580  
         H         H         0.93299   0.55239   0.27544   0.110643  
         C         C         0.38271   0.64301   0.24376   0.061041  
         C         C         0.40857   0.71421   0.24293   -0.150935           
         C         C         0.43110   0.61799   0.24414   0.081493  
         N         N         0.41027   0.55266   0.24736   -0.300063           
         C         C         0.45788   0.52892   0.25152   0.206429  
         C         C         0.42904   0.45635   0.25441   -0.134944           
         C         C         0.47154   0.42641   0.26210   -0.163936           
         H         H         0.46377   0.75128   0.23970   0.111588  
         H         H         0.48589   0.65917   0.24205   0.060643  
         H         H         0.37255   0.42409   0.25337   0.112858  
         H         H         0.44761   0.37000   0.26666   0.109259  
         C         C         0.36381   0.73934   0.24714   0.051376  
         C         C         0.29282   0.69252   0.25133   -0.139400           
         C         C         0.39135   0.81273   0.25417   0.076475  
         N         N         0.45233   0.86014   0.22885   -0.285029           
         C         C         0.47447   0.93007   0.23137   0.205868  
         C         C         0.55304   0.96862   0.31228   -0.146770           
         C         C         0.57896   0.03751   0.32533   -0.169023           
         H         H         0.25776   0.70983   0.25978   0.111536  
         H         H         0.35791   0.82440   0.28729   0.069588  
         H         H         0.59247   0.94227   0.36867   0.116652  
         H         H         0.63975   0.06562   0.39559   0.108086  
         C         C         0.73405   0.37926   0.75974   0.064013  
         C         C         0.68770   0.40201   0.76338   -0.125171           
         C         C         0.80835   0.42965   0.75818   0.082317  
         N         N         0.85322   0.41008   0.75774   -0.302241           
         C         C         0.92469   0.45756   0.75689   0.193364  
         C         C         0.96650   0.42863   0.75374   -0.143307           
         C         C         0.03894   0.46812   0.75692   -0.168169           
         H         H         0.70560   0.45668   0.76464   0.109643  
         H         H         0.82253   0.48425   0.75623   0.071076  
         H         H         0.93858   0.37378   0.74389   0.121881  
         H         H         0.06735   0.44334   0.74835   0.113588  
         C         C         0.61589   0.35450   0.76531   0.063751  
         C         C         0.59048   0.28404   0.76153   -0.152020           
         C         C         0.56746   0.37854   0.76788   0.076253  
         N         N         0.58767   0.44429   0.76044   -0.298871           
         C         C         0.54004   0.46788   0.75612   0.207302  
         C         C         0.57097   0.53895   0.76667   -0.136193           
         C         C         0.52937   0.56888   0.76187   -0.160819           
         H         H         0.53532   0.24651   0.76409   0.111592  
         H         H         0.51341   0.33742   0.77519   0.064081  
         H         H         0.62923   0.56942   0.77971   0.112189  
         H         H         0.55617   0.62357   0.77387   0.106895  
         C         C         0.63577   0.26060   0.75320   0.052289  
         C         C         0.70726   0.30833   0.75326   -0.142167           
         C         C         0.60834   0.18812   0.73858   0.075431  
         N         N         0.54616   0.14037   0.75598   -0.285971           
         C         C         0.52400   0.07053   0.75229   0.204732  
         C         C         0.44536   0.03164   0.67236   -0.143138           
         C         C         0.41934   0.96258   0.66178   -0.170582           
         H         H         0.74344   0.29246   0.74439   0.111441  
         H         H         0.64325   0.17727   0.70821   0.069075  
         H         H         0.40576   0.05776   0.61646   0.115165  
         H         H         0.35853   0.93439   0.59216   0.108453  
         C         C         0.26110   0.61918   0.74755   0.063492  
         C         C         0.30727   0.59526   0.74686   -0.128925           
         C         C         0.18751   0.56908   0.75399   0.086065  
         N         N         0.14390   0.58818   0.76076   -0.303570           
         C         C         0.07267   0.54011   0.76256   0.191985  
         C         C         0.03047   0.56932   0.76270   -0.142274           
         C         C         0.95815   0.52980   0.75998   -0.166513           
         H         H         0.28915   0.53993   0.75058   0.112965  
         H         H         0.17239   0.51461   0.75328   0.067569  
         H         H         0.05762   0.62519   0.76362   0.121057  
         H         H         0.92840   0.55501   0.76183   0.111679  
         C         C         0.37910   0.64213   0.74384   0.063829  
         C         C         0.40450   0.71309   0.74437   -0.151186           
         C         C         0.42819   0.61810   0.74347   0.078697  
         N         N         0.40699   0.55323   0.74150   -0.298873           
         C         C         0.45402   0.52882   0.74559   0.205832  
         C         C         0.42297   0.45752   0.73499   -0.134745           
         C         C         0.46471   0.42745   0.74004   -0.166542           
         H         H         0.45993   0.75069   0.74372   0.109740  
         H         H         0.48305   0.66033   0.74451   0.061880  
         H         H         0.36506   0.42640   0.72373   0.112757  
         H         H         0.43869   0.37253   0.72990   0.107154  
         C         C         0.35875   0.73806   0.74479   0.049908  
         C         C         0.28723   0.69106   0.74547   -0.141139           
         C         C         0.38571   0.81151   0.75065   0.073641  
         N         N         0.44891   0.85846   0.73679   -0.289004           
         C         C         0.47093   0.92867   0.73720   0.205250  
         C         C         0.54960   0.96738   0.81762   -0.145150           
         C         C         0.57582   0.03670   0.82805   -0.167982           
         H         H         0.25090   0.70848   0.74838   0.110730  
         H         H         0.34927   0.82317   0.77271   0.070464  
         H         H         0.58921   0.94111   0.87522   0.116661  
         H         H         0.63662   0.06467   0.89923   0.108367 

