
##########################################################################
#               Crystallographic Information Format file
#               Produced by PyCifRW module
#
#  This is a CIF file.  CIF has been adopted by the International
#  Union of Crystallography as the standard for data archiving and
#  transmission.
#
#  For information on this file format, follow the CIF links at
#  http://www.iucr.org
##########################################################################

data_image0

_cell_length_a                          42.9323
_cell_length_b                          42.1778
_cell_length_c                          13.8371
_cell_angle_alpha                       91.3247
_cell_angle_beta                        90.8637
_cell_angle_gamma                       90.0145
_symmetry_space_group_name_H-M          'P 1'
_space_group_name_Hall                  'P 1'
loop_
  _atom_site_type_symbol
  _atom_site_label
  _atom_site_fract_x
  _atom_site_fract_y
  _atom_site_fract_z
  _atom_site_charge
         C         C         0.41829   0.41642   0.00227   0.105499  
         C         C         0.92003   0.91629   0.00312   0.104601  
         C         C         0.58332   0.58252   0.99413   0.102457  
         C         C         0.08163   0.08244   0.00670   0.104547  
         C         C         0.58093   0.41545   -0.00062  0.102949  
         C         C         0.08293   0.91582   0.00097   0.104804  
         C         C         0.42074   0.58337   0.00120   0.106149  
         C         C         0.91927   0.08329   0.00404   0.103234  
         C         C         0.28996   0.29004   0.89807   -0.243814           
         C         C         0.79782   0.78453   0.90125   -0.249696           
         C         C         0.71493   0.70330   0.89636   -0.247167           
         C         C         0.20800   0.20757   0.89815   -0.246939           
         C         C         0.70576   0.28707   0.10644   -0.247413           
         C         C         0.21460   0.79518   0.10318   -0.245767           
         C         C         0.29634   0.71271   0.10591   -0.245841           
         C         C         0.79083   0.20801   0.10635   -0.248529           
         C         C         0.70282   0.71750   0.09779   -0.248055           
         C         C         0.20635   0.21208   0.10589   -0.242337           
         C         C         0.28906   0.29362   0.10599   -0.242387           
         C         C         0.78566   0.79886   0.10256   -0.246988           
         C         C         0.29829   0.71365   0.89787   -0.246383           
         C         C         0.79528   0.21249   0.89893   -0.245773           
         C         C         0.71082   0.29200   0.89933   -0.246653           
         C         C         0.21436   0.79379   0.89480   -0.248915           
         C         C         0.26894   0.27044   0.94949   0.078735  
         C         C         0.77398   0.76769   0.95011   0.077957  
         C         C         0.73275   0.72723   0.94754   0.078721  
         C         C         0.22809   0.22948   0.94955   0.078321  
         C         C         0.72825   0.26829   0.05507   0.077591  
         C         C         0.23570   0.77478   0.05225   0.079292  
         C         C         0.27659   0.73397   0.05381   0.079447  
         C         C         0.77054   0.22893   0.05484   0.077422  
         C         C         0.72643   0.73461   0.04856   0.075901  
         C         C         0.22736   0.23164   0.05434   0.078833  
         C         C         0.26843   0.27234   0.05434   0.077535  
         C         C         0.76764   0.77513   0.05108   0.076542  
         C         C         0.27734   0.73420   0.94890   0.079525  
         C         C         0.77307   0.23147   0.95063   0.079876  
         C         C         0.73092   0.27095   0.95092   0.079676  
         C         C         0.23587   0.77441   0.94728   0.079925  
         N         N         0.54989   0.49944   0.99376   -0.258226           
         N         N         0.04994   0.99886   0.00648   -0.257603           
         N         N         0.45177   0.49942   0.00070   -0.260257           
         N         N         0.95183   -0.00013  0.00339   -0.258852           
         H         H         0.52611   0.50028   0.99511   0.268527  
         H         H         0.02614   0.99816   0.00643   0.268870  
         H         H         0.47557   0.49856   0.00012   0.269473  
         H         H         0.97564   0.00052   0.00313   0.268693  
         C         C         0.56769   0.47221   0.99500   0.176799  
         C         C         0.06865   0.97228   0.00488   0.175807  
         C         C         0.43396   0.52663   0.00118   0.178819  
         C         C         0.93314   0.02648   0.00413   0.178194  
         C         C         0.43288   0.47296   0.00144   0.177241  
         C         C         0.93382   0.97280   0.00347   0.177828  
         C         C         0.56879   0.52588   0.99241   0.177757  
         C         C         0.06794   0.02593   0.00694   0.176206  
         C         C         0.59967   0.48209   0.99358   -0.181785           
         C         C         0.10030   0.98321   0.00481   -0.184375           
         C         C         0.40197   0.51671   0.00195   -0.183474           
         C         C         0.90148   0.01560   0.00469   -0.184150           
         C         C         0.40132   0.48409   0.00215   -0.182372           
         C         C         0.90189   0.98296   0.00448   -0.183395           
         C         C         0.60034   0.51469   0.99214   -0.184628           
         C         C         0.09987   0.01584   0.00629   -0.182182           
         H         H         0.29041   0.28905   0.81972   0.129875  
         H         H         0.80286   0.77923   0.82582   0.140598  
         H         H         0.71949   0.69750   0.82090   0.138845  
         H         H         0.20840   0.20572   0.81984   0.136220  
         H         H         0.70346   0.28515   0.18423   0.137484  
         H         H         0.21494   0.79660   0.18161   0.133299  
         H         H         0.29619   0.71247   0.18432   0.135614  
         H         H         0.78904   0.20574   0.18414   0.138764  
         H         H         0.69804   0.72266   0.17345   0.140461  
         H         H         0.20529   0.21360   0.18410   0.129951  
         H         H         0.28886   0.29531   0.18430   0.132022  
         H         H         0.78088   0.80487   0.17771   0.141064  
         H         H         0.29992   0.71431   0.81974   0.135127  
         H         H         0.79727   0.21406   0.82094   0.137877  
         H         H         0.71272   0.29434   0.82156   0.137135  
         H         H         0.21466   0.79400   0.81639   0.136576  
         H         H         0.61927   0.46595   0.99411   0.137212  
         H         H         0.12042   0.96776   0.00343   0.138043  
         H         H         0.38234   0.53282   0.00215   0.136591  
         H         H         0.88136   0.03108   0.00550   0.138684  
         H         H         0.38110   0.46874   0.00284   0.137526  
         H         H         0.88217   0.96696   0.00528   0.137394  
         H         H         0.62058   0.52997   0.99138   0.137754  
         H         H         0.11959   0.03186   0.00663   0.137278  
         N         N         0.49987   0.45139   0.00039   -0.414823           
         N         N         0.00154   0.95129   0.00134   -0.414499           
         N         N         0.50183   0.54749   0.99756   -0.413774           
         N         N         0.00031   0.04741   0.00782   -0.414732           
         C         C         0.52519   0.43151   0.00057   0.187585  
         C         C         0.02676   0.93122   0.00054   0.186873  
         C         C         0.47648   0.56737   -0.00174  0.187142  
         C         C         0.97508   0.06745   0.00663   0.186695  
         C         C         0.47444   0.43159   0.00163   0.186438  
         C         C         0.97600   0.93166   0.00185   0.186679  
         C         C         0.52725   0.56730   0.99643   0.184978  
         C         C         0.02580   0.06707   0.00822   0.186259  
         C         C         0.51560   0.39830   0.00217   -0.184343           
         C         C         0.01698   0.89808   0.00048   -0.185578           
         C         C         0.48608   0.60057   -0.00238  -0.186267           
         C         C         0.98481   0.10060   0.00663   -0.184575           
         C         C         0.48388   0.39836   0.00256   -0.185934           
         C         C         0.98528   0.89835   0.00128   -0.185191           
         C         C         0.51777   0.60053   0.99623   -0.184812           
         C         C         0.01653   0.10037   0.00757   -0.186357           
         H         H         0.53118   0.37810   0.00258   0.128746  
         H         H         0.03243   0.87777   0.00054   0.128782  
         H         H         0.47053   0.62079   -0.00190  0.128417  
         H         H         0.96937   0.12088   0.00555   0.129220  
         H         H         0.46820   0.37825   0.00333   0.128902  
         H         H         0.96948   0.87833   0.00188   0.128881  
         H         H         0.53336   0.62071   0.99477   0.128713  
         H         H         0.03229   0.12041   0.00738   0.129212  
         C         C         0.55667   0.44092   -0.00166  -0.082831           
         C         C         0.05823   0.94074   0.00201   -0.083175           
         C         C         0.44500   0.55794   0.00020   -0.083163           
         C         C         0.94362   0.05797   0.00488   -0.083802           
         C         C         0.44307   0.44136   0.00183   -0.083718           
         C         C         0.94462   0.94140   0.00273   -0.084252           
         C         C         0.55865   0.55753   0.99398   -0.082591           
         C         C         0.05715   0.05730   0.00765   -0.080765           
         C         C         0.09467   0.09144   0.91903   -0.150378           
         C         C         0.59955   0.58906   0.90946   -0.151145           
         C         C         0.90647   0.90503   0.91599   -0.151079           
         C         C         0.40519   0.40477   0.91489   -0.153331           
         C         C         0.90851   0.09664   0.09118   -0.151448           
         C         C         0.40693   0.59316   0.08828   -0.152839           
         C         C         0.09925   0.90858   0.08640   -0.151837           
         C         C         0.59176   0.40321   0.08721   -0.152581           
         C         C         0.90996   0.90398   0.09071   -0.148951           
         C         C         0.40762   0.40450   0.08974   -0.151103           
         C         C         0.09202   0.09712   0.09334   -0.151813           
         C         C         0.59060   0.59995   0.07927   -0.150724           
         C         C         0.09070   0.89978   0.91459   -0.149499           
         C         C         0.59324   0.40353   0.91242   -0.153429           
         C         C         0.90704   0.09422   0.91621   -0.149213           
         C         C         0.41138   0.59772   0.91496   -0.150602           
         C         C         0.11761   0.11481   0.91807   -0.049957           
         C         C         0.62223   0.61274   0.90967   -0.050825           
         C         C         0.88332   0.88185   0.91641   -0.049267           
         C         C         0.38185   0.38175   0.91494   -0.047186           
         C         C         0.88593   0.12039   0.09052   -0.048934           
         C         C         0.38426   0.61685   0.08906   -0.049142           
         C         C         0.12269   0.88569   0.08554   -0.050425           
         C         C         0.61459   0.37966   0.08806   -0.049333           
         C         C         0.88645   0.88119   0.09124   -0.050475           
         C         C         0.38415   0.38160   0.08975   -0.048660           
         C         C         0.11510   0.12036   0.09236   -0.049480           
         C         C         0.61343   0.62348   0.07957   -0.051099           
         C         C         0.11447   0.87724   0.91352   -0.050507           
         C         C         0.61606   0.37999   0.91337   -0.049117           
         C         C         0.88462   0.11815   0.91566   -0.048336           
         C         C         0.38857   0.62123   0.91570   -0.048730           
         O         O         0.16723   0.16663   0.91897   -0.337350           
         O         O         0.67223   0.66437   0.91414   -0.338486           
         O         O         0.83755   0.82668   0.92282   -0.338172           
         O         O         0.33146   0.33059   0.91850   -0.337852           
         O         O         0.83403   0.16956   0.08614   -0.338400           
         O         O         0.33582   0.67016   0.08608   -0.336247           
         O         O         0.17170   0.83359   0.08179   -0.337366           
         O         O         0.66461   0.32793   0.08569   -0.338387           
         O         O         0.82947   0.83672   0.08581   -0.338567           
         O         O         0.33106   0.33326   0.08595   -0.336694           
         O         O         0.16588   0.17047   0.08634   -0.335917           
         O         O         0.66349   0.67478   0.07662   -0.337739           
         O         O         0.17053   0.83178   0.91422   -0.337544           
         O         O         0.66767   0.33047   0.91890   -0.338851           
         O         O         0.83617   0.17152   0.91908   -0.338433           
         O         O         0.33767   0.67137   0.91887   -0.336907           
         C         C         0.30921   0.30978   0.95088   0.179912  
         C         C         0.81402   0.80706   0.95352   0.177161  
         C         C         0.69246   0.68805   0.94651   0.177348  
         C         C         0.18859   0.18931   0.95095   0.178714  
         C         C         0.68743   0.30704   0.05381   0.177384  
         C         C         0.19429   0.81270   0.04967   0.179275  
         C         C         0.31512   0.69289   0.05349   0.175237  
         C         C         0.81192   0.19091   0.05377   0.176600  
         C         C         0.68680   0.69471   0.04593   0.176635  
         C         C         0.18775   0.19163   0.05347   0.177368  
         C         C         0.30888   0.31148   0.05349   0.177107  
         C         C         0.80859   0.81366   0.05308   0.175941  
         C         C         0.31620   0.69353   0.95098   0.179453  
         C         C         0.81367   0.19261   0.95149   0.174989  
         C         C         0.68963   0.30904   0.95168   0.175792  
         C         C         0.19385   0.81179   0.94694   0.177758  
         C         C         0.37459   0.63122   0.00271   -0.240618           
         C         C         0.87362   0.13165   0.00277   -0.241595           
         C         C         0.62718   0.36765   0.00117   -0.241386           
         C         C         0.13085   0.86972   -0.00103  -0.240104           
         C         C         0.62961   0.63040   0.99466   -0.240478           
         C         C         0.12823   0.12965   0.00462   -0.242077           
         C         C         0.37079   0.36985   0.00237   -0.241796           
         C         C         0.87277   0.86971   0.00416   -0.239769           
         B         B         0.34960   0.65724   0.00264   0.594449  
         B         B         0.84840   0.15747   0.00256   0.596303  
         B         B         0.65275   0.34218   0.00202   0.595289  
         B         B         0.15728   0.84520   -0.00199  0.595644  
         B         B         0.65477   0.65627   0.99499   0.594640  
         B         B         0.15351   0.15527   0.00307   0.595296  
         B         B         0.34475   0.34485   0.00221   0.595348  
         B         B         0.84692   0.84462   0.00469   0.597662  
         C         C         0.24873   0.24911   0.90087   -0.195207           
         C         C         0.75636   0.74402   0.90188   -0.204014           
         C         C         0.74815   0.24730   0.10338   -0.203232           
         C         C         0.25619   0.75475   0.10179   -0.198698           
         C         C         0.74394   0.75841   0.09667   -0.202337           
         C         C         0.24754   0.25298   0.10293   -0.194296           
         C         C         0.25716   0.75457   0.89937   -0.200336           
         C         C         0.75324   0.25252   0.90237   -0.203360           
         H         H         0.08651   0.08003   0.85199   0.114515  
         H         H         0.59400   0.57557   0.84345   0.114085  
         H         H         0.91439   0.91464   0.84829   0.113293  
         H         H         0.41351   0.41398   0.84714   0.114410  
         H         H         0.91813   0.08820   0.15914   0.113739  
         H         H         0.41434   0.58214   0.15516   0.115539  
         H         H         0.09322   0.92103   0.15331   0.114351  
         H         H         0.58216   0.41240   0.15461   0.116412  
         H         H         0.92075   0.91253   0.15804   0.112989  
         H         H         0.41788   0.41338   0.15751   0.114280  
         H         H         0.08184   0.08994   0.16104   0.114165  
         H         H         0.57819   0.59469   0.14501   0.116471  
         H         H         0.07807   0.90538   0.84837   0.113455  
         H         H         0.58476   0.41294   0.84432   0.115651  
         H         H         0.91544   0.08386   0.84870   0.113107  
         H         H         0.42217   0.59018   0.84756   0.112283  
         H         H         0.12757   0.12179   0.84985   0.105995  
         H         H         0.63451   0.61777   0.84344   0.105326  
         H         H         0.87302   0.87322   0.84833   0.105306  
         H         H         0.37186   0.37293   0.84669   0.105265  
         H         H         0.87769   0.13051   0.15856   0.104817  
         H         H         0.37391   0.62443   0.15715   0.105599  
         H         H         0.13502   0.88015   0.15239   0.105711  
         H         H         0.62288   0.37044   0.15666   0.105799  
         H         H         0.87861   0.87191   0.15954   0.103424  
         H         H         0.37598   0.37262   0.15807   0.105285  
         H         H         0.12316   0.13147   0.16005   0.105664  
         H         H         0.61893   0.63666   0.14627   0.107871  
         H         H         0.12056   0.86523   0.84590   0.106252  
         H         H         0.62546   0.37099   0.84544   0.106176  
         H         H         0.87541   0.12655   0.84711   0.104500  
         H         H         0.38137   0.63216   0.84843   0.104193  
         H         H         0.24909   0.24768   0.82231   0.104447  
         H         H         0.76138   0.73838   0.82648   0.114370  
         H         H         0.74614   0.24511   0.18133   0.113150  
         H         H         0.25605   0.75520   0.18044   0.106714  
         H         H         0.73896   0.76405   0.17210   0.115459  
         H         H         0.24706   0.25446   0.18145   0.103981  
         H         H         0.25789   0.75476   0.82080   0.109104  
         H         H         0.75531   0.25471   0.82444   0.111175  
         C         C         0.41815   0.41782   0.50612   0.103780  
         C         C         0.91845   0.91635   0.49573   0.103830  
         C         C         0.58107   0.58308   0.50494   0.103574  
         C         C         0.08065   0.08440   0.49476   0.105258  
         C         C         0.58073   0.41635   0.50158   0.102292  
         C         C         0.08110   0.91747   0.49893   0.103794  
         C         C         0.41824   0.58471   0.51247   0.103072  
         C         C         0.91786   0.08309   0.49610   0.104108  
         C         C         0.29048   0.29122   0.39782   -0.243436           
         C         C         0.79681   0.78292   0.39431   -0.249047           
         C         C         0.71360   0.70188   0.39517   -0.247927           
         C         C         0.20634   0.21118   0.39526   -0.243665           
         C         C         0.70045   0.28297   0.59739   -0.248625           
         C         C         0.20160   0.78573   0.60331   -0.244565           
         C         C         0.28517   0.70515   0.60829   -0.250585           
         C         C         0.78317   0.20147   0.59905   -0.249382           
         C         C         0.70579   0.71329   0.60008   -0.248817           
         C         C         0.21042   0.20877   0.60269   -0.244221           
         C         C         0.29503   0.28852   0.60525   -0.249066           
         C         C         0.78811   0.79495   0.59876   -0.247480           
         C         C         0.28771   0.70609   0.40034   -0.244452           
         C         C         0.79855   0.21693   0.40308   -0.251688           
         C         C         0.71618   0.29868   0.40175   -0.249620           
         C         C         0.20472   0.78722   0.39553   -0.247167           
         C         C         0.27073   0.27015   0.44852   0.079037  
         C         C         0.77409   0.76522   0.44548   0.078430  
         C         C         0.73279   0.72481   0.44590   0.077097  
         C         C         0.22876   0.23040   0.44719   0.079635  
         C         C         0.72526   0.26654   0.54957   0.079348  
         C         C         0.22270   0.76516   0.55281   0.078482  
         C         C         0.26420   0.72497   0.55533   0.080834  
         C         C         0.76641   0.22598   0.55039   0.078963  
         C         C         0.72861   0.73077   0.54878   0.078807  
         C         C         0.23086   0.22917   0.55182   0.080168  
         C         C         0.27295   0.26886   0.55315   0.079932  
         C         C         0.76973   0.77132   0.54825   0.077962  
         C         C         0.26558   0.72553   0.45056   0.078544  
         C         C         0.77437   0.23398   0.45212   0.079496  
         C         C         0.73324   0.27456   0.45130   0.079346  
         C         C         0.22417   0.76581   0.44806   0.079436  
         N         N         0.54851   0.49977   0.50388   -0.259195           
         N         N         0.04868   0.00085   0.49607   -0.258857           
         N         N         0.45052   0.50128   0.50953   -0.260695           
         N         N         0.95051   -0.00017  0.49353   -0.259864           
         H         H         0.52473   0.49924   0.50621   0.269155  
         H         H         0.02487   0.00096   0.49565   0.268879  
         H         H         0.47432   0.50160   0.50984   0.270216  
         H         H         0.97433   -0.00027  0.49430   0.269473  
         C         C         0.56702   0.47305   0.50273   0.178152  
         C         C         0.06705   0.97403   0.49740   0.176132  
         C         C         0.43214   0.52810   0.51137   0.176661  
         C         C         0.93214   0.02665   0.49375   0.176920  
         C         C         0.43219   0.47441   0.50882   0.178734  
         C         C         0.93216   0.97298   0.49370   0.178438  
         C         C         0.56671   0.52673   0.50411   0.177089  
         C         C         0.06702   0.02771   0.49583   0.178163  
         C         C         0.59874   0.48376   0.50235   -0.183861           
         C         C         0.09884   0.98460   0.49776   -0.182412           
         C         C         0.40037   0.51758   0.51203   -0.183485           
         C         C         0.90036   0.01607   0.49362   -0.183179           
         C         C         0.40040   0.48494   0.51060   -0.183178           
         C         C         0.90036   0.98345   0.49348   -0.181794           
         C         C         0.59855   0.51638   0.50260   -0.183491           
         C         C         0.09881   0.01721   0.49672   -0.183782           
         H         H         0.28923   0.29241   0.31964   0.130660  
         H         H         0.80048   0.77849   0.31765   0.140050  
         H         H         0.71657   0.69725   0.31828   0.139841  
         H         H         0.20459   0.21185   0.31710   0.131103  
         H         H         0.69416   0.27746   0.67093   0.140349  
         H         H         0.19984   0.78503   0.68142   0.134359  
         H         H         0.28387   0.70394   0.68640   0.137491  
         H         H         0.77713   0.19500   0.67204   0.141060  
         H         H         0.70248   0.71765   0.67699   0.138693  
         H         H         0.21174   0.20769   0.68090   0.130392  
         H         H         0.29708   0.28757   0.68337   0.137535  
         H         H         0.78493   0.79973   0.67557   0.139734  
         H         H         0.28849   0.70572   0.32195   0.132140  
         H         H         0.80479   0.22278   0.32978   0.142498  
         H         H         0.72240   0.30523   0.32897   0.140665  
         H         H         0.20521   0.78762   0.31717   0.136195  
         H         H         0.61880   0.46824   0.50257   0.137105  
         H         H         0.11878   0.96890   0.49900   0.137613  
         H         H         0.38045   0.53330   0.51392   0.138175  
         H         H         0.88042   0.03178   0.49371   0.137334  
         H         H         0.38049   0.46920   0.51133   0.137205  
         H         H         0.88044   0.96770   0.49371   0.136837  
         H         H         0.61839   0.53223   0.50257   0.137250  
         H         H         0.11875   0.03293   0.49665   0.136946  
         N         N         0.49977   0.45244   0.50932   -0.416602           
         N         N         -0.00037  0.95235   0.49969   -0.414875           
         N         N         0.49938   0.54873   0.51193   -0.414227           
         N         N         -0.00049  0.04836   0.49198   -0.415629           
         C         C         0.52485   0.43224   0.50592   0.188189  
         C         C         0.02516   0.93272   0.50012   0.186692  
         C         C         0.47428   0.56892   0.51441   0.185931  
         C         C         0.97397   0.06800   0.49325   0.188007  
         C         C         0.47408   0.43298   0.50742   0.188080  
         C         C         0.97439   0.93228   0.49904   0.185534  
         C         C         0.52499   0.56824   0.51119   0.187407  
         C         C         0.02473   0.06843   0.49245   0.187244  
         C         C         0.51481   0.39916   0.50144   -0.186055           
         C         C         0.01587   0.89940   0.49990   -0.185596           
         C         C         0.48421   0.60203   0.51599   -0.186170           
         C         C         0.98324   0.10131   0.49443   -0.186817           
         C         C         0.48313   0.39963   0.50253   -0.186254           
         C         C         0.98417   0.89914   0.49929   -0.184952           
         C         C         0.51590   0.60160   0.51396   -0.184474           
         C         C         0.01494   0.10158   0.49386   -0.185632           
         H         H         0.53005   0.37875   0.49674   0.128222  
         H         H         0.03161   0.87932   0.49941   0.129004  
         H         H         0.46887   0.62242   0.51802   0.129194  
         H         H         0.96748   0.12137   0.49598   0.129605  
         H         H         0.46728   0.37964   0.49920   0.128671  
         H         H         0.96869   0.87883   0.49822   0.129035  
         H         H         0.53179   0.62155   0.51403   0.129095  
         H         H         0.03041   0.12189   0.49508   0.128783  
         C         C         0.55641   0.44155   0.50371   -0.081758           
         C         C         0.05653   0.94257   0.49909   -0.081347           
         C         C         0.44278   0.55956   0.51342   -0.081304           
         C         C         0.94262   0.05815   0.49417   -0.082682           
         C         C         0.44273   0.44291   0.50769   -0.083745           
         C         C         0.94288   0.94160   0.49608   -0.083069           
         C         C         0.55625   0.55822   0.50694   -0.079997           
         C         C         0.05627   0.05911   0.49402   -0.083925           
         C         C         0.08799   0.10005   0.40953   -0.152160           
         C         C         0.59272   0.59316   0.41650   -0.151069           
         C         C         0.90298   0.90725   0.40936   -0.153291           
         C         C         0.40196   0.40990   0.41996   -0.151827           
         C         C         0.90514   0.09349   0.58419   -0.149781           
         C         C         0.40813   0.59922   0.59877   -0.149301           
         C         C         0.09074   0.90353   0.58553   -0.148646           
         C         C         0.58569   0.39705   0.58188   -0.149783           
         C         C         0.91037   0.90164   0.58186   -0.151410           
         C         C         0.41099   0.40177   0.59075   -0.148735           
         C         C         0.09670   0.09277   0.58083   -0.152424           
         C         C         0.59323   0.59640   0.59141   -0.153852           
         C         C         0.09476   0.90749   0.41185   -0.152747           
         C         C         0.59926   0.41161   0.41957   -0.152578           
         C         C         0.90660   0.09594   0.40970   -0.151989           
         C         C         0.40459   0.59376   0.42445   -0.151622           
         C         C         0.11100   0.12339   0.41025   -0.048677           
         C         C         0.61616   0.61605   0.41465   -0.049589           
         C         C         0.88022   0.88364   0.40889   -0.049715           
         C         C         0.37928   0.38622   0.41825   -0.048306           
         C         C         0.88154   0.11621   0.58571   -0.049289           
         C         C         0.38462   0.62203   0.59712   -0.048993           
         C         C         0.11350   0.87995   0.58486   -0.049041           
         C         C         0.60867   0.37372   0.58036   -0.054561           
         C         C         0.88708   0.87858   0.58172   -0.055628           
         C         C         0.38804   0.37837   0.58922   -0.049461           
         C         C         0.11946   0.11636   0.58170   -0.049924           
         C         C         0.61657   0.61939   0.58945   -0.049065           
         C         C         0.11735   0.88375   0.41116   -0.048322           
         C         C         0.62213   0.38815   0.41787   -0.053321           
         C         C         0.88326   0.11892   0.41138   -0.049874           
         C         C         0.38131   0.61680   0.42278   -0.051860           
         O         O         0.16421   0.17162   0.41418   -0.335751           
         O         O         0.67039   0.66351   0.41553   -0.338029           
         O         O         0.83638   0.82549   0.41337   -0.339655           
         O         O         0.33146   0.33209   0.41886   -0.337272           
         O         O         0.82610   0.16251   0.58038   -0.337752           
         O         O         0.32962   0.66798   0.59085   -0.337084           
         O         O         0.16255   0.82834   0.58121   -0.336796           
         O         O         0.66051   0.32460   0.57681   -0.337887           
         O         O         0.82971   0.83486   0.57721   -0.340252           
         O         O         0.33579   0.32970   0.58582   -0.337206           
         O         O         0.16753   0.16966   0.58134   -0.336666           
         O         O         0.66546   0.67155   0.58110   -0.336687           
         O         O         0.16559   0.83010   0.41424   -0.335956           
         O         O         0.67226   0.33658   0.41891   -0.338477           
         O         O         0.83682   0.17333   0.42045   -0.337704           
         O         O         0.33114   0.66820   0.42349   -0.337802           
         C         C         0.31072   0.30973   0.45106   0.178799  
         C         C         0.81353   0.80529   0.44575   0.177675  
         C         C         0.69186   0.68622   0.44722   0.177062  
         C         C         0.18741   0.19218   0.44722   0.178165  
         C         C         0.68491   0.30559   0.54675   0.177103  
         C         C         0.18403   0.80605   0.54981   0.176994  
         C         C         0.30657   0.68802   0.55704   0.178252  
         C         C         0.80632   0.18634   0.54942   0.177140  
         C         C         0.68842   0.69150   0.54840   0.176943  
         C         C         0.18944   0.19100   0.54964   0.177465  
         C         C         0.31318   0.30835   0.55338   0.178732  
         C         C         0.80932   0.81116   0.54628   0.176174  
         C         C         0.30766   0.68832   0.45447   0.178410  
         C         C         0.81340   0.19345   0.45218   0.177559  
         C         C         0.69240   0.31315   0.45021   0.178972  
         C         C         0.18575   0.80698   0.44742   0.177367  
         C         C         0.37078   0.63125   0.50918   -0.241550           
         C         C         0.87025   0.12941   0.49938   -0.241280           
         C         C         0.62731   0.36884   0.49831   -0.241682           
         C         C         0.12706   0.86952   0.49763   -0.242578           
         C         C         0.62855   0.62957   0.50101   -0.240310           
         C         C         0.12709   0.13204   0.49640   -0.241722           
         C         C         0.37185   0.37007   0.50295   -0.241217           
         C         C         0.87170   0.86902   0.49513   -0.239208           
         B         B         0.34430   0.65569   0.50793   0.596980  
         B         B         0.84462   0.15478   0.50035   0.597317  
         B         B         0.65296   0.34354   0.49769   0.594321  
         B         B         0.15147   0.84297   0.49730   0.595230  
         B         B         0.65449   0.65462   0.49890   0.593338  
         B         B         0.15251   0.15762   0.49732   0.595827  
         B         B         0.34669   0.34422   0.50231   0.595625  
         B         B         0.84623   0.84340   0.49498   0.599989  
         C         C         0.24888   0.25076   0.39930   -0.195760           
         C         C         0.75560   0.74207   0.39792   -0.204197           
         C         C         0.74214   0.24259   0.59576   -0.206101           
         C         C         0.24241   0.74439   0.60262   -0.199090           
         C         C         0.74719   0.75381   0.59633   -0.203778           
         C         C         0.25299   0.24829   0.60097   -0.197075           
         C         C         0.24521   0.74557   0.40058   -0.197774           
         C         C         0.75767   0.25812   0.40627   -0.202954           
         H         H         0.07552   0.09358   0.34290   0.115038  
         H         H         0.58327   0.58282   0.34948   0.114527  
         H         H         0.90914   0.91879   0.34274   0.113725  
         H         H         0.40758   0.42237   0.35443   0.112936  
         H         H         0.91390   0.08348   0.65111   0.113023  
         H         H         0.41870   0.59218   0.66696   0.111725  
         H         H         0.08023   0.91140   0.65302   0.113380  
         H         H         0.57153   0.40087   0.64568   0.116570  
         H         H         0.92239   0.90867   0.64880   0.116457  
         H         H         0.42359   0.40792   0.65741   0.114016  
         H         H         0.09092   0.08072   0.64693   0.115189  
         H         H         0.58423   0.58847   0.65992   0.115036  
         H         H         0.08721   0.91836   0.34489   0.114804  
         H         H         0.59543   0.42650   0.35729   0.114798  
         H         H         0.91624   0.08753   0.34147   0.114091  
         H         H         0.41244   0.58246   0.35762   0.115374  
         H         H         0.11671   0.13515   0.34353   0.105211  
         H         H         0.62512   0.62358   0.34563   0.105438  
         H         H         0.86860   0.87661   0.34127   0.104076  
         H         H         0.36706   0.38009   0.35083   0.105988  
         H         H         0.87178   0.12405   0.65440   0.105486  
         H         H         0.37672   0.63291   0.66456   0.104756  
         H         H         0.12093   0.86934   0.65239   0.105335  
         H         H         0.61245   0.35915   0.64346   0.111528  
         H         H         0.88076   0.86763   0.64921   0.109401  
         H         H         0.38254   0.36621   0.65539   0.105917  
         H         H         0.13164   0.12277   0.64893   0.106700  
         H         H         0.62586   0.62946   0.65710   0.105573  
         H         H         0.12756   0.87594   0.34310   0.105376  
         H         H         0.63631   0.38469   0.35385   0.110728  
         H         H         0.87474   0.12880   0.34395   0.105114  
         H         H         0.37094   0.62364   0.35403   0.109026  
         H         H         0.24734   0.25179   0.32092   0.104173  
         H         H         0.75904   0.73745   0.32101   0.115803  
         H         H         0.73601   0.23649   0.66916   0.115462  
         H         H         0.24094   0.74358   0.68098   0.107800  
         H         H         0.74379   0.75848   0.67318   0.113682  
         H         H         0.25464   0.24719   0.67934   0.104975  
         H         H         0.24606   0.74566   0.32203   0.106255  
         H         H         0.76366   0.26415   0.33271   0.112157 

