
##########################################################################
#               Crystallographic Information Format file
#               Produced by PyCifRW module
#
#  This is a CIF file.  CIF has been adopted by the International
#  Union of Crystallography as the standard for data archiving and
#  transmission.
#
#  For information on this file format, follow the CIF links at
#  http://www.iucr.org
##########################################################################

data_image0

_cell_length_a                          25.3665
_cell_length_b                          25.7283
_cell_length_c                          10.1048
_cell_angle_alpha                       52.6054
_cell_angle_beta                        89.5711
_cell_angle_gamma                       90.0561
_symmetry_space_group_name_H-M          'P 1'
_space_group_name_Hall                  'P 1'
loop_
  _atom_site_type_symbol
  _atom_site_label
  _atom_site_fract_x
  _atom_site_fract_y
  _atom_site_fract_z
  _atom_site_charge
         C         C         0.30291   0.02898   0.19153   0.204803  
         C         C         0.28121   0.97154   0.33469   -0.185949           
         C         C         0.22676   0.96383   0.35760   -0.123399           
         C         C         0.47026   0.05401   0.16814   -0.106151           
         C         C         0.19250   0.01278   0.23918   0.077337  
         C         C         0.13423   0.00395   0.25790   -0.066490           
         N         N         0.35708   0.03976   0.16567   -0.276694           
         C         C         0.21440   0.07060   0.09805   -0.127131           
         C         C         0.26858   0.07880   0.07489   -0.162156           
         C         C         0.38819   0.99358   0.19938   0.066312  
         C         C         0.47696   0.94770   0.22678   -0.125969           
         C         C         0.44549   -0.00097  0.19646   0.061740  
         N         N         0.06022   0.94033   0.25649   -0.409642           
         C         C         0.11272   0.95553   0.24939   0.182239  
         C         C         0.14546   0.91680   0.22091   -0.203599           
         C         C         0.05907   0.89300   0.23283   0.187521  
         C         C         0.11185   0.87947   0.20372   -0.188059           
         H         H         0.30737   0.93437   0.43034   0.110503  
         H         H         0.20990   0.91975   0.46908   0.111858  
         H         H         0.44558   0.09317   0.14577   0.117481  
         H         H         0.18809   0.10876   0.00588   0.110316  
         H         H         0.28582   0.12301   0.96533   0.122352  
         H         H         0.37248   0.94682   0.23441   0.064207  
         H         H         0.45792   0.90589   0.24418   0.108258  
         H         H         0.18777   0.91928   0.21105   0.119257  
         H         H         0.12150   0.84859   0.16789   0.128345  
         H         H         0.97332   0.97259   0.72438   0.268819  
         C         C         0.97968   0.30640   0.23190   0.211255  
         C         C         0.94135   0.25679   0.32353   -0.156782           
         C         C         0.94673   0.19654   0.35489   -0.116124           
         C         C         0.96152   0.47346   0.22282   -0.112112           
         C         C         0.98833   0.18497   0.28249   0.079908  
         C         C         0.99150   0.12555   0.29152   -0.065741           
         N         N         0.97309   0.36289   0.22027   -0.287612           
         C         C         0.02596   0.23565   0.18793   -0.124103           
         C         C         0.02249   0.29446   0.16431   -0.181303           
         C         C         0.01429   0.39534   0.20794   0.066852  
         C         C         0.05711   0.48186   0.20630   -0.128162           
         C         C         0.01049   0.45127   0.20925   0.064841  
         N         N         0.05293   0.05474   0.27644   -0.260204           
         C         C         0.04217   0.10083   0.30149   0.186516  
         C         C         0.09184   0.12041   0.32561   -0.185986           
         C         C         0.10665   0.04648   0.27625   0.182822  
         C         C         0.13081   0.08876   0.30547   -0.193723           
         H         H         0.90829   0.26669   0.37412   0.116159  
         H         H         0.91901   0.15743   0.43870   0.111481  
         H         H         0.92580   0.44995   0.22355   0.114729  
         H         H         0.05792   0.22865   0.12879   0.098618  
         H         H         0.05180   0.33233   0.08762   0.102603  
         H         H         0.05438   0.37992   0.20580   0.065107  
         H         H         0.09476   0.46543   0.19202   0.106191  
         H         H         0.09670   0.15242   0.36014   0.128123  
         H         H         0.17292   0.09169   0.31525   0.126474  
         C         C         0.69262   0.97769   0.75850   0.202227  
         C         C         0.72043   0.99467   0.61599   -0.169743           
         C         C         0.77503   0.00117   0.60802   -0.129783           
         C         C         0.52660   0.94961   0.80878   -0.111558           
         C         C         0.80396   0.98766   0.74400   0.071381  
         C         C         0.86243   0.99437   0.73697   -0.065432           
         N         N         0.63764   0.97402   0.75851   -0.275237           
         C         C         0.77603   0.96688   0.88930   -0.121721           
         C         C         0.72123   0.96271   0.89672   -0.188146           
         C         C         0.60971   0.00184   0.80704   0.067570  
         C         C         0.52131   0.04243   0.81543   -0.128080           
         C         C         0.55205   0.99756   0.81195   0.060341  
         N         N         0.93702   0.05323   0.75446   -0.412830           
         C         C         0.88449   0.03725   0.76577   0.184025  
         C         C         0.85271   0.07342   0.80532   -0.198841           
         C         C         0.93881   0.09954   0.78260   0.187051  
         C         C         0.88656   0.10994   0.82248   -0.191375           
         H         H         0.69839   0.00453   0.51084   0.115154  
         H         H         0.79593   0.01685   0.49518   0.100479  
         H         H         0.55104   0.91562   0.80535   0.116414  
         H         H         0.79780   0.95418   -0.00268  0.101898  
         H         H         0.70020   0.94645   0.01022   0.113628  
         H         H         0.62778   0.03161   0.84023   0.072174  
         H         H         0.54079   0.07833   0.82303   0.107177  
         H         H         0.81038   0.07078   0.81933   0.118111  
         H         H         0.87797   0.14013   0.86144   0.124200  
         H         H         0.02302   0.03087   0.26450   0.268475  
         C         C         0.02445   0.69424   0.76649   0.211946  
         C         C         0.06423   0.74276   0.68807   -0.157563           
         C         C         0.05726   0.80305   0.65582   -0.111206           
         C         C         0.04818   0.52810   0.76698   -0.110515           
         C         C         0.01226   0.81570   0.71554   0.076441  
         C         C         0.00820   0.87528   0.70576   -0.068535           
         N         N         0.03337   0.63800   0.77758   -0.291044           
         C         C         0.97336   0.76561   0.79942   -0.120144           
         C         C         0.97867   0.70674   0.82306   -0.184550           
         C         C         0.99319   0.60622   0.77909   0.067266  
         C         C         0.95262   0.51882   0.77977   -0.125914           
         C         C         0.99866   0.55021   0.77793   0.061537  
         N         N         0.94485   0.94856   0.70733   -0.259777           
         C         C         0.95750   0.90297   0.68158   0.182334  
         C         C         0.90880   0.88391   0.64960   -0.186414           
         C         C         0.89080   0.95611   0.70419   0.183653  
         C         C         0.86854   0.91431   0.66953   -0.197295           
         H         H         0.09996   0.73221   0.64794   0.118305  
         H         H         0.08655   0.84158   0.58215   0.108997  
         H         H         0.08340   0.55288   0.76462   0.113663  
         H         H         0.93892   0.77290   0.85155   0.102121  
         H         H         0.94812   0.66930   0.89163   0.105982  
         H         H         0.95240   0.62212   0.77263   0.065432  
         H         H         0.91439   0.53570   0.78922   0.105982  
         H         H         0.90561   0.85206   0.61309   0.129557  
         H         H         0.82682   0.90913   0.65925   0.129333  
         C         C         0.69883   0.96950   0.26087   0.200580  
         C         C         0.72957   0.91848   0.39078   -0.163173           
         C         C         0.78403   0.92491   0.38892   -0.132218           
         C         C         0.53151   0.95038   0.23212   -0.105213           
         C         C         0.81052   0.98143   0.25721   0.073465  
         C         C         0.86922   0.98610   0.25491   -0.070279           
         N         N         0.64442   0.96062   0.26369   -0.288178           
         C         C         0.77946   0.03186   0.12838   -0.121572           
         C         C         0.72495   0.02640   0.12929   -0.186353           
         C         C         0.61326   0.00873   0.21614   0.064237  
         C         C         0.52486   0.05702   0.17155   -0.128953           
         C         C         0.55630   0.00493   0.20612   0.055337  
         N         N         0.94370   0.04577   0.27225   -0.407559           
         C         C         0.89127   0.03644   0.25547   0.187923  
         C         C         0.85896   0.08598   0.24318   -0.199994           
         C         C         0.94509   0.09940   0.27258   0.193555  
         C         C         0.89221   0.12574   0.24930   -0.178334           
         H         H         0.70965   0.87464   0.49372   0.123211  
         H         H         0.80708   0.88546   0.49122   0.115643  
         H         H         0.55600   0.91086   0.25608   0.116903  
         H         H         0.79891   0.07523   0.02356   0.112963  
         H         H         0.70230   0.06486   0.02355   0.109483  
         H         H         0.62857   0.05485   0.18477   0.067960  
         H         H         0.54402   0.09939   0.15067   0.109452  
         H         H         0.81652   0.09049   0.22896   0.119458  
         H         H         0.88187   0.16916   0.23754   0.127756  
         H         H         0.02013   0.03669   0.75180   0.269913  
         C         C         0.03348   0.68757   0.26248   0.213474  
         C         C         0.06717   0.70098   0.34811   -0.163428           
         C         C         0.05937   0.75601   0.34082   -0.120265           
         C         C         0.05526   0.53177   0.22207   -0.100594           
         C         C         0.01932   0.80192   0.24348   0.072976  
         C         C         0.01299   0.85967   0.24057   -0.064631           
         N         N         0.04249   0.63300   0.26713   -0.285069           
         C         C         0.98685   0.78923   0.15299   -0.119914           
         C         C         0.99338   0.73286   0.16486   -0.185523           
         C         C         0.00216   0.60382   0.26053   0.070713  
         C         C         0.95969   0.52319   0.23884   -0.130682           
         C         C         0.00637   0.55240   0.24150   0.060218  
         N         N         0.95036   0.93123   0.25222   -0.257527           
         C         C         0.96185   0.87856   0.25267   0.182197  
         C         C         0.91244   0.84955   0.26231   -0.184981           
         C         C         0.89653   0.93826   0.25597   0.182110  
         C         C         0.87297   0.88667   0.26015   -0.197018           
         H         H         0.09852   0.66694   0.42422   0.121642  
         H         H         0.08448   0.76456   0.41258   0.096429  
         H         H         0.09090   0.55582   0.21996   0.116207  
         H         H         0.95750   0.82498   0.06808   0.108205  
         H         H         0.96917   0.72472   0.09054   0.100365  
         H         H         0.96166   0.61690   0.26967   0.062136  
         H         H         0.92191   0.54006   0.25110   0.104705  
         H         H         0.90780   0.80595   0.27061   0.134828  
         H         H         0.83105   0.87837   0.26380   0.129670  
         C         C         0.29989   0.03239   0.74788   0.204112  
         C         C         0.27135   0.08001   0.60494   -0.170335           
         C         C         0.21704   0.07409   0.59959   -0.132985           
         C         C         0.46659   0.04102   0.80920   -0.109274           
         C         C         0.18866   0.02096   0.73609   0.074866  
         C         C         0.13009   0.01624   0.73286   -0.061615           
         N         N         0.35450   0.03984   0.74952   -0.277074           
         C         C         0.21758   0.97378   0.87821   -0.124303           
         C         C         0.27188   0.97948   0.88548   -0.187622           
         C         C         0.38416   0.99053   0.79783   0.065107  
         C         C         0.47200   0.94663   0.80967   -0.131255           
         C         C         0.44128   0.99294   0.80668   0.056231  
         N         N         0.05604   0.95613   0.72031   -0.407970           
         C         C         0.10803   0.96255   0.74779   0.189129  
         C         C         0.13874   0.90708   0.78857   -0.199460           
         C         C         0.05370   0.89880   0.73728   0.190600  
         C         C         0.10461   0.86606   0.78802   -0.185528           
         H         H         0.29293   0.12050   0.49759   0.122095  
         H         H         0.19567   0.11139   0.48820   0.108149  
         H         H         0.44250   0.07596   0.80894   0.116222  
         H         H         0.19637   0.93291   0.98570   0.108236  
         H         H         0.29296   0.94436   0.00004   0.108447  
         H         H         0.36725   0.94503   0.82833   0.067859  
         H         H         0.45246   0.90906   0.80913   0.107870  
         H         H         0.18021   0.89984   0.81611   0.121853  
         H         H         0.11315   0.81844   0.82140   0.130050  
         H         H         0.97959   0.95871   0.25275   0.269131  
         C         C         0.97423   0.30902   0.74277   0.211115  
         C         C         0.93485   0.29452   0.67178   -0.155958           
         C         C         0.93793   0.23872   0.67962   -0.123897           
         C         C         0.95572   0.46754   0.76953   -0.100270           
         C         C         0.97946   0.19338   0.76248   0.077909  
         C         C         0.98419   0.13633   0.76062   -0.067852           
         N         N         0.96865   0.36457   0.73596   -0.284409           
         C         C         0.01707   0.20660   0.84112   -0.119346           
         C         C         0.01523   0.26354   0.82755   -0.181485           
         C         C         0.00934   0.39289   0.74298   0.069764  
         C         C         0.05111   0.47704   0.75568   -0.134656           
         C         C         0.00507   0.44624   0.75556   0.061141  
         N         N         0.04782   0.06906   0.73570   -0.259243           
         C         C         0.03475   0.12293   0.72819   0.184686  
         C         C         0.08275   0.15874   0.69183   -0.186648           
         C         C         0.10157   0.06651   0.71774   0.181388  
         C         C         0.12326   0.12371   0.69033   -0.195816           
         H         H         0.90261   0.32870   0.60656   0.119372  
         H         H         0.90801   0.23013   0.61843   0.102288  
         H         H         0.92053   0.44302   0.77140   0.115305  
         H         H         0.04739   0.17083   0.91696   0.107240  
         H         H         0.04458   0.27183   0.89012   0.103229  
         H         H         0.04966   0.37821   0.73943   0.061804  
         H         H         0.08951   0.46118   0.74412   0.105035  
         H         H         0.08550   0.20524   0.67000   0.131934  
         H         H         0.16463   0.13634   0.67035   0.129484 

