
##########################################################################
#               Crystallographic Information Format file
#               Produced by PyCifRW module
#
#  This is a CIF file.  CIF has been adopted by the International
#  Union of Crystallography as the standard for data archiving and
#  transmission.
#
#  For information on this file format, follow the CIF links at
#  http://www.iucr.org
##########################################################################

data_image0

_cell_length_a                          22.4022
_cell_length_b                          22.7172
_cell_length_c                          8.03278
_cell_angle_alpha                       123.044
_cell_angle_beta                        85.5886
_cell_angle_gamma                       120.122
_symmetry_space_group_name_H-M          'P 1'
_space_group_name_Hall                  'P 1'
loop_
  _atom_site_type_symbol
  _atom_site_label
  _atom_site_fract_x
  _atom_site_fract_y
  _atom_site_fract_z
  _atom_site_charge
         O         O         0.28834   0.52382   0.22830   -0.475410           
         N         N         0.41539   0.55302   0.23819   -0.237717           
         C         C         0.31026   0.58827   0.23231   0.359160  
         C         C         0.38384   0.63864   0.23560   -0.244961           
         C         C         0.43318   0.61924   0.24048   0.123019  
         C         C         0.45928   0.52643   0.24175   0.194604  
         C         C         0.42741   0.45328   0.23350   -0.168072           
         C         C         0.53229   0.56782   0.24907   -0.171019           
         H         H         0.37085   0.42123   0.22749   0.130153  
         H         H         0.48797   0.65978   0.24633   0.102153  
         H         H         0.55791   0.62353   0.25123   0.122882  
         H         H         0.36088   0.52084   0.23454   0.270849  
         O         O         0.47441   0.75498   0.23992   -0.481248           
         N         N         0.44562   0.85046   0.22799   -0.233242           
         C         C         0.40952   0.71160   0.23547   0.357858  
         C         C         0.35891   0.73321   0.23128   -0.251457           
         C         C         0.37934   0.80113   0.22735   0.115839  
         C         C         0.47203   0.92269   0.23603   0.199478  
         C         C         0.54570   0.97146   0.25917   -0.157931           
         C         C         0.42812   0.94900   0.22707   -0.171576           
         H         H         0.57979   0.95144   0.26801   0.128571  
         H         H         0.33904   0.81432   0.22464   0.099063  
         H         H         0.37085   0.91214   0.20776   0.127638  
         H         H         0.47886   0.83099   0.23209   0.274425  
         O         O         0.24310   0.70919   0.24198   -0.481640           
         N         N         0.14430   0.58667   0.25176   -0.232029           
         C         C         0.28537   0.68646   0.23616   0.351914  
         C         C         0.26205   0.61424   0.23598   -0.244263           
         C         C         0.19325   0.56872   0.24663   0.119577  
         C         C         0.07370   0.54392   0.25936   0.195454  
         C         C         0.03176   0.57590   0.27788   -0.163300           
         C         C         0.04262   0.46950   0.24461   -0.177955           
         H         H         0.05537   0.63335   0.28836   0.126894  
         H         H         0.17957   0.51685   0.25258   0.097976  
         H         H         0.07350   0.44301   0.22955   0.123739  
         H         H         0.16589   0.63970   0.25159   0.273848  
         O         O         0.71119   0.47072   0.27484   -0.474618           
         N         N         0.58400   0.43795   0.25213   -0.240420           
         C         C         0.68964   0.40613   0.27039   0.356956  
         C         C         0.61563   0.35362   0.26047   -0.247113           
         C         C         0.56591   0.37218   0.25218   0.127484  
         C         C         0.54032   0.46407   0.24424   0.196034  
         C         C         0.57209   0.53686   0.25084   -0.166584           
         C         C         0.46715   0.42217   0.23412   -0.170067           
         H         H         0.62860   0.56900   0.25653   0.131163  
         H         H         0.51097   0.33159   0.24537   0.101413  
         H         H         0.44136   0.36604   0.22990   0.122016  
         H         H         0.63899   0.47050   0.25920   0.270092  
         O         O         0.52556   0.23435   0.24701   -0.482475           
         N         N         0.55708   0.14243   0.26830   -0.235801           
         C         C         0.59077   0.28017   0.25791   0.355732  
         C         C         0.64268   0.26037   0.26553   -0.250773           
         C         C         0.62322   0.19263   0.26939   0.115117  
         C         C         0.53150   0.07107   0.26332   0.203467  
         C         C         0.45789   0.02255   0.24163   -0.160904           
         C         C         0.57554   0.04519   0.27423   -0.178217           
         H         H         0.42398   0.04287   0.23365   0.127695  
         H         H         0.66441   0.18093   0.27414   0.101131  
         H         H         0.63291   0.08226   0.29492   0.127763  
         H         H         0.52293   0.16020   0.26011   0.273946  
         O         O         0.76053   0.28912   0.26623   -0.480631           
         N         N         0.85887   0.41625   0.27039   -0.229324           
         C         C         0.71689   0.30967   0.26774   0.349328  
         C         C         0.73919   0.38257   0.27209   -0.243632           
         C         C         0.80852   0.43161   0.27035   0.122442  
         C         C         0.92962   0.46029   0.26592   0.195032  
         C         C         0.97167   0.42857   0.24839   -0.163317           
         C         C         0.96068   0.53487   0.28141   -0.177143           
         H         H         0.94795   0.37117   0.23800   0.126350  
         H         H         0.82134   0.48392   0.26736   0.100499  
         H         H         0.92974   0.56137   0.29674   0.123236  
         H         H         0.83767   0.36248   0.26711   0.272137  
         O         O         0.28841   0.52971   0.72823   -0.474306           
         N         N         0.41499   0.55966   0.73932   -0.238125           
         C         C         0.31010   0.59409   0.73195   0.358593  
         C         C         0.38363   0.64534   0.73683   -0.245238           
         C         C         0.43302   0.62578   0.74088   0.126585  
         C         C         0.45832   0.53225   0.74168   0.195618  
         C         C         0.42629   0.45913   0.73399   -0.166086           
         C         C         0.53115   0.57287   0.74704   -0.171048           
         H         H         0.36984   0.42751   0.72978   0.129845  
         H         H         0.48777   0.66587   0.74559   0.101260  
         H         H         0.55699   0.62858   0.74927   0.122495  
         H         H         0.36043   0.52791   0.73666   0.269275  
         O         O         0.47391   0.76381   0.74840   -0.482923           
         N         N         0.44321   0.85738   0.73244   -0.235410           
         C         C         0.40891   0.71905   0.74038   0.357143  
         C         C         0.35752   0.73998   0.73663   -0.251764           
         C         C         0.37718   0.80755   0.73199   0.116984  
         C         C         0.46886   0.92872   0.73710   0.202935  
         C         C         0.54264   0.97817   0.76230   -0.163360           
         C         C         0.42447   0.95356   0.72210   -0.177580           
         H         H         0.57700   0.95906   0.77493   0.128428  
         H         H         0.33632   0.81969   0.72736   0.099705  
         H         H         0.36700   0.91556   0.69844   0.127530  
         H         H         0.47730   0.83938   0.73980   0.273111  
         O         O         0.24155   0.71567   0.75262   -0.481131           
         N         N         0.14308   0.58968   0.75190   -0.227854           
         C         C         0.28407   0.69275   0.74188   0.349807  
         C         C         0.26136   0.61945   0.73603   -0.246499           
         C         C         0.19240   0.57199   0.74263   0.122609  
         C         C         0.07263   0.54644   0.76011   0.194139  
         C         C         0.03049   0.57811   0.77819   -0.163130           
         C         C         0.04192   0.47244   0.74754   -0.177715           
         H         H         0.05406   0.63565   0.78904   0.125849  
         H         H         0.17894   0.51863   0.74162   0.099292  
         H         H         0.07336   0.44697   0.73629   0.123564  
         H         H         0.16438   0.64399   0.75754   0.272373  
         O         O         0.71103   0.47612   0.77456   -0.476521           
         N         N         0.58258   0.44239   0.74701   -0.238661           
         C         C         0.68923   0.41157   0.77039   0.357327  
         C         C         0.61503   0.35950   0.76064   -0.245334           
         C         C         0.56500   0.37729   0.74967   0.124630  
         C         C         0.53875   0.46858   0.74040   0.193696  
         C         C         0.57057   0.54113   0.74595   -0.167381           
         C         C         0.46575   0.42743   0.73321   -0.171288           
         H         H         0.62683   0.57224   0.74818   0.131296  
         H         H         0.51012   0.33634   0.74241   0.102311  
         H         H         0.43979   0.37135   0.72963   0.122858  
         H         H         0.63742   0.47524   0.75441   0.272796  
         O         O         0.52447   0.24194   0.75237   -0.480388           
         N         N         0.55414   0.14847   0.76915   -0.232217           
         C         C         0.58965   0.28656   0.76065   0.355607  
         C         C         0.64100   0.26626   0.76870   -0.250074           
         C         C         0.62056   0.19799   0.77114   0.115173  
         C         C         0.52785   0.07661   0.76222   0.199370  
         C         C         0.45408   0.02721   0.73676   -0.157335           
         C         C         0.57212   0.05138   0.77548   -0.172330           
         H         H         0.41970   0.04645   0.72524   0.128811  
         H         H         0.66094   0.18508   0.77448   0.098267  
         H         H         0.62954   0.08908   0.79779   0.127506  
         H         H         0.52088   0.16762   0.76306   0.273262  
         O         O         0.75804   0.29291   0.76675   -0.479634           
         N         N         0.85739   0.41846   0.76863   -0.233546           
         C         C         0.71510   0.31437   0.76905   0.349614  
         C         C         0.73826   0.38722   0.77213   -0.243664           
         C         C         0.80789   0.43521   0.77014   0.122655  
         C         C         0.92844   0.46232   0.76564   0.195613  
         C         C         0.97082   0.43122   0.75034   -0.162402           
         C         C         0.95948   0.53696   0.78132   -0.177924           
         H         H         0.94748   0.37416   0.74168   0.126318  
         H         H         0.82168   0.48805   0.76810   0.098562  
         H         H         0.92844   0.56324   0.79573   0.123036  
         H         H         0.83539   0.36424   0.76402   0.273726 

