
##########################################################################
#               Crystallographic Information Format file
#               Produced by PyCifRW module
#
#  This is a CIF file.  CIF has been adopted by the International
#  Union of Crystallography as the standard for data archiving and
#  transmission.
#
#  For information on this file format, follow the CIF links at
#  http://www.iucr.org
##########################################################################

data_image0

_cell_length_a                          22.4296
_cell_length_b                          22.6499
_cell_length_c                          8.25107
_cell_angle_alpha                       126.492
_cell_angle_beta                        82.7807
_cell_angle_gamma                       120.176
_symmetry_space_group_name_H-M          'P 1'
_space_group_name_Hall                  'P 1'
loop_
  _atom_site_type_symbol
  _atom_site_label
  _atom_site_fract_x
  _atom_site_fract_y
  _atom_site_fract_z
  _atom_site_charge
         H         H         0.43438   0.13295   0.16201   0.147491  
         H         H         0.91535   0.34718   0.07295   0.134301  
         H         H         0.68399   0.62695   0.18183   0.138296  
         H         H         0.59465   0.94248   0.11851   0.137099  
         H         H         0.10923   0.72060   0.20141   0.141400  
         H         H         0.33106   0.44966   0.10135   0.143493  
         H         H         0.57047   0.87470   0.84259   0.148498  
         H         H         0.08900   0.66323   0.92922   0.135465  
         H         H         0.31424   0.38046   0.82791   0.139994  
         H         H         0.40983   0.06509   0.88586   0.136788  
         H         H         0.89013   0.28708   0.80039   0.142550  
         H         H         0.66924   0.55543   0.90929   0.143165  
         O         O         0.75909   0.29070   0.99594   -0.483121           
         N         N         0.55738   0.14797   0.01263   -0.219636           
         C         C         0.71639   0.31380   0.00642   0.350942  
         C         C         0.64277   0.26541   0.00840   -0.249078           
         C         C         0.62304   0.19665   0.00924   0.117260  
         C         C         0.53089   0.07658   0.00963   0.146545  
         C         C         0.57336   0.04665   0.00314   -0.238234           
         C         C         0.45850   0.03356   0.00942   0.093847  
         C         C         0.41255   0.06558   0.01896   -0.423807           
         H         H         0.62926   0.08049   0.00549   0.123033  
         H         H         0.66348   0.18338   0.00850   0.101806  
         H         H         0.52456   0.16811   0.01099   0.261905  
         H         H         0.35816   0.02469   0.01767   0.135938  
         O         O         0.71265   0.48128   0.03587   -0.481507           
         N         N         0.85769   0.41838   0.00376   -0.226164           
         C         C         0.69065   0.41439   0.02345   0.353675  
         C         C         0.73948   0.38874   0.01706   -0.239402           
         C         C         0.80892   0.43740   0.01441   0.117351  
         C         C         0.92877   0.46145   -0.00070  0.143434  
         C         C         0.96097   0.53911   0.02583   -0.238722           
         C         C         0.96871   0.42479   0.96913   0.091717  
         C         C         0.93550   0.34122   0.93850   -0.420512           
         H         H         0.93035   0.56749   0.04995   0.120637  
         H         H         0.82310   0.49205   0.01909   0.101479  
         H         H         0.83494   0.36286   0.99547   0.264840  
         H         H         0.97466   0.32354   0.91976   0.137246  
         O         O         0.52687   0.24204   0.00220   -0.485907           
         N         N         0.58438   0.44516   0.00508   -0.226323           
         C         C         0.59178   0.28697   0.00808   0.357188  
         C         C         0.61671   0.36118   0.01263   -0.250269           
         C         C         0.56657   0.37888   0.00344   0.127587  
         C         C         0.54092   0.47197   0.00016   0.143155  
         C         C         0.46772   0.42760   0.98556   -0.241798           
         C         C         0.57355   0.54766   0.01519   0.085922  
         C         C         0.65219   0.59733   0.03398   -0.415141           
         H         H         0.44297   0.36967   0.97514   0.122856  
         H         H         0.51170   0.33704   0.99441   0.100230  
         H         H         0.63927   0.47882   0.01482   0.260300  
         H         H         0.66636   0.64950   0.02676   0.136930  
         O         O         0.24428   0.71831   0.00645   -0.485016           
         N         N         0.44715   0.85952   0.99120   -0.222790           
         C         C         0.28611   0.69398   0.99469   0.351265  
         C         C         0.36012   0.74148   0.99266   -0.250168           
         C         C         0.38112   0.81087   0.99346   0.117541  
         C         C         0.47379   0.93103   0.99444   0.148045  
         C         C         0.43130   0.96097   0.00074   -0.238420           
         C         C         0.54615   0.97407   0.99457   0.094384  
         C         C         0.59207   0.94207   0.98545   -0.428392           
         H         H         0.37542   0.92711   -0.00161  0.121867  
         H         H         0.34117   0.82489   0.99482   0.101527  
         H         H         0.47954   0.83865   0.99084   0.265060  
         H         H         0.64652   0.98309   0.98741   0.137238  
         O         O         0.28680   0.52567   0.96933   -0.481772           
         N         N         0.14325   0.58908   0.99117   -0.224064           
         C         C         0.30961   0.59218   0.97942   0.355018  
         C         C         0.26169   0.61864   0.98362   -0.242098           
         C         C         0.19183   0.57034   0.98436   0.123089  
         C         C         0.07191   0.54563   0.99339   0.141864  
         C         C         0.03964   0.46774   0.96584   -0.239218           
         C         C         0.03204   0.58232   0.02368   0.089296  
         C         C         0.06587   0.66675   0.05815   -0.420155           
         H         H         0.07011   0.43909   0.94085   0.120611  
         H         H         0.17730   0.51590   0.98110   0.100355  
         H         H         0.16644   0.64489   0.00062   0.264869  
         H         H         0.02641   0.68336   0.07071   0.138410  
         O         O         0.47515   0.76227   -0.00227  -0.486375           
         N         N         0.41460   0.55921   -0.00238  -0.226482           
         C         C         0.41011   0.71860   0.99295   0.355657  
         C         C         0.38380   0.64446   0.98998   -0.250485           
         C         C         0.43299   0.62558   -0.00095  0.127512  
         C         C         0.45782   0.53196   0.00190   0.143585  
         C         C         0.53092   0.57606   0.01564   -0.236239           
         C         C         0.42516   0.45624   0.98673   0.090010  
         C         C         0.34673   0.40755   0.97122   -0.419606           
         H         H         0.55566   0.63370   0.02497   0.121116  
         H         H         0.48801   0.66656   0.00750   0.099628  
         H         H         0.35991   0.52625   0.98925   0.260804  
         H         H         0.33195   0.35368   0.97200   0.137453  
         H         H         0.43025   0.12609   0.65851   0.148974  
         H         H         0.91044   0.33454   0.56124   0.135691  
         H         H         0.68670   0.62045   0.67907   0.137595  
         H         H         0.59098   0.93497   0.61449   0.136576  
         H         H         0.10895   0.71054   0.69071   0.141645  
         H         H         0.33254   0.44587   0.59551   0.143297  
         H         H         0.56674   0.86836   0.33859   0.148072  
         H         H         0.08451   0.65055   0.41810   0.134919  
         H         H         0.31719   0.37692   0.32258   0.138773  
         H         H         0.40609   0.05830   0.38247   0.136542  
         H         H         0.88958   0.27676   0.28897   0.142365  
         H         H         0.67092   0.55351   0.40558   0.143970  
         O         O         0.75601   0.28069   0.48853   -0.484484           
         N         N         0.55358   0.14064   0.50833   -0.223975           
         C         C         0.71436   0.30558   0.50293   0.349930  
         C         C         0.64064   0.25866   0.50714   -0.250135           
         C         C         0.61963   0.18921   0.50618   0.118515  
         C         C         0.52687   0.06950   0.50653   0.147186  
         C         C         0.56934   0.03980   0.50177   -0.238310           
         C         C         0.45450   0.02666   0.50656   0.094131  
         C         C         0.40864   0.05871   0.51555   -0.427176           
         H         H         0.62533   0.07381   0.50515   0.122084  
         H         H         0.65957   0.17507   0.50428   0.101359  
         H         H         0.52131   0.16162   0.50834   0.266419  
         H         H         0.35418   0.01767   0.51344   0.136769  
         O         O         0.71388   0.47422   0.52953   -0.481627           
         N         N         0.85642   0.40878   0.50004   -0.226461           
         C         C         0.69097   0.40787   0.52017   0.355089  
         C         C         0.73868   0.38095   0.51436   -0.243473           
         C         C         0.80831   0.42869   0.51127   0.124569  
         C         C         0.92759   0.45176   0.49630   0.140037  
         C         C         0.95978   0.52947   0.52317   -0.237643           
         C         C         0.96734   0.41491   0.46575   0.091329  
         C         C         0.93327   0.33049   0.43150   -0.419841           
         H         H         0.92916   0.55779   0.54669   0.121221  
         H         H         0.82314   0.48365   0.51658   0.100724  
         H         H         0.83308   0.35286   0.49008   0.264599  
         H         H         0.97247   0.31343   0.41820   0.137056  
         O         O         0.52592   0.23866   0.50501   -0.485912           
         N         N         0.58628   0.44126   0.50271   -0.227509           
         C         C         0.59084   0.28207   0.50870   0.355733  
         C         C         0.61696   0.35615   0.51149   -0.248987           
         C         C         0.56784   0.37519   0.50279   0.126716  
         C         C         0.54325   0.46888   0.49931   0.142962  
         C         C         0.46997   0.42435   0.48337   -0.238034           
         C         C         0.57622   0.54548   0.51813   0.087315  
         C         C         0.65487   0.59480   0.53662   -0.417040           
         H         H         0.44485   0.36576   0.47009   0.122312  
         H         H         0.51293   0.33457   0.49613   0.099423  
         H         H         0.64096   0.47389   0.51002   0.261546  
         H         H         0.66992   0.64976   0.54014   0.137272  
         O         O         0.24042   0.70752   0.49791   -0.480419           
         N         N         0.44296   0.85286   0.48981   -0.221081           
         C         C         0.28359   0.68545   0.49061   0.348468  
         C         C         0.35741   0.73460   0.49099   -0.249226           
         C         C         0.37707   0.80347   0.49064   0.117137  
         C         C         0.46966   0.92436   0.49317   0.145019  
         C         C         0.42731   0.95438   0.49929   -0.236289           
         C         C         0.54207   0.96729   0.49342   0.093777  
         C         C         0.58821   0.93535   0.48294   -0.423433           
         H         H         0.37151   0.92092   0.49809   0.122643  
         H         H         0.33639   0.81615   0.48957   0.102063  
         H         H         0.47575   0.83275   0.49201   0.264443  
         H         H         0.64257   0.97691   0.48551   0.135743  
         O         O         0.28830   0.51980   0.46793   -0.481503           
         N         N         0.14208   0.57970   0.48962   -0.227190           
         C         C         0.31002   0.58623   0.47857   0.352420  
         C         C         0.26085   0.61097   0.48169   -0.239009           
         C         C         0.19128   0.56173   0.48253   0.121038  
         C         C         0.07079   0.53609   0.49174   0.143271  
         C         C         0.03844   0.45811   0.46384   -0.243389           
         C         C         0.03080   0.57261   0.52101   0.090956  
         C         C         0.06393   0.65619   0.55177   -0.420752           
         H         H         0.06903   0.42959   0.43886   0.123637  
         H         H         0.17735   0.50751   0.47937   0.099756  
         H         H         0.16470   0.63508   0.49740   0.264492  
         H         H         0.02461   0.67351   0.56914   0.138619  
         O         O         0.47350   0.75851   0.49860   -0.485588           
         N         N         0.41704   0.55690   0.50045   -0.231235           
         C         C         0.40863   0.71359   0.49300   0.356220  
         C         C         0.38400   0.63984   0.49028   -0.249354           
         C         C         0.43452   0.62299   0.50167   0.127413  
         C         C         0.46049   0.52992   0.50458   0.145765  
         C         C         0.53380   0.57455   0.52076   -0.238514           
         C         C         0.42760   0.45345   0.48621   0.086493  
         C         C         0.34894   0.40413   0.46733   -0.416320           
         H         H         0.55880   0.63313   0.53396   0.122971  
         H         H         0.48940   0.66529   0.51183   0.101057  
         H         H         0.36216   0.52296   0.49011   0.261123  
         H         H         0.33396   0.35030   0.46850   0.137005 

