
##########################################################################
#               Crystallographic Information Format file
#               Produced by PyCifRW module
#
#  This is a CIF file.  CIF has been adopted by the International
#  Union of Crystallography as the standard for data archiving and
#  transmission.
#
#  For information on this file format, follow the CIF links at
#  http://www.iucr.org
##########################################################################

data_image0

_cell_length_a                          27.4244
_cell_length_b                          27.4204
_cell_length_c                          7.88224
_cell_angle_alpha                       89.1655
_cell_angle_beta                        58.8519
_cell_angle_gamma                       90.7951
_symmetry_space_group_name_H-M          'P 1'
_space_group_name_Hall                  'P 1'
loop_
  _atom_site_type_symbol
  _atom_site_label
  _atom_site_fract_x
  _atom_site_fract_y
  _atom_site_fract_z
  _atom_site_charge
         C         C         0.02642   0.41012   0.24592   -0.135479           
         C         C         0.05446   0.45446   0.24759   0.065136  
         C         C         0.10591   0.45473   0.24507   -0.100408           
         C         C         0.26579   0.47162   0.24054   0.172823  
         C         C         0.30797   0.44384   0.23808   -0.178768           
         C         C         0.35234   0.47100   0.23392   -0.042781           
         C         C         0.40303   0.45609   0.23570   0.329630  
         O         O         0.21927   0.54000   0.24211   -0.338602           
         H         H         0.04597   0.37572   0.24469   0.109287  
         H         H         0.12537   0.42018   0.24217   0.112673  
         H         H         0.30705   0.40423   0.23812   0.150714  
         C         C         0.97920   0.59038   0.26176   -0.138312           
         C         C         0.95138   0.54608   0.25850   0.069930  
         C         C         0.89999   0.54578   0.26020   -0.101989           
         C         C         0.74025   0.52707   0.26035   0.169433  
         C         C         0.69751   0.55417   0.26363   -0.178144           
         C         C         0.65351   0.52635   0.26832   -0.043053           
         C         C         0.60258   0.54097   0.26811   0.327851  
         O         O         0.78799   0.45956   0.25755   -0.339316           
         H         H         0.95933   0.62477   0.26569   0.109603  
         H         H         0.88038   0.58033   0.26457   0.110912  
         H         H         0.69747   0.59379   0.26420   0.150959  
         C         C         0.59136   0.02433   0.24519   -0.134414           
         C         C         0.54633   0.05083   0.24726   0.068684  
         C         C         0.54545   0.10197   0.24787   -0.102511           
         C         C         0.52680   0.26027   0.25753   0.169325  
         C         C         0.55435   0.30284   0.25974   -0.192263           
         C         C         0.52752   0.34590   0.25809   -0.036513           
         C         C         0.54252   0.39716   0.26059   0.338927  
         O         O         0.45941   0.21223   0.25090   -0.338618           
         H         H         0.62527   0.04493   0.24690   0.112011  
         H         H         0.57974   0.12216   0.24902   0.108748  
         H         H         0.59344   0.30314   0.26314   0.147602  
         C         C         0.40987   0.97220   0.25620   -0.135448           
         C         C         0.45487   0.94564   0.25433   0.066743  
         C         C         0.45591   0.89446   0.25338   -0.101536           
         C         C         0.47834   0.73608   0.23751   0.169180  
         C         C         0.45160   0.69314   0.23522   -0.189001           
         C         C         0.47897   0.65078   0.23938   -0.038888           
         C         C         0.46408   0.59963   0.23905   0.340787  
         O         O         0.54472   0.78548   0.24371   -0.339739           
         H         H         0.37574   0.95164   0.25539   0.112658  
         H         H         0.42127   0.87408   0.25510   0.109085  
         H         H         0.41294   0.69197   0.22911   0.147740  
         C         C         0.97650   0.41080   0.24701   -0.135079           
         C         C         0.95018   0.45586   0.25002   0.068693  
         C         C         0.89893   0.45746   0.25128   -0.101511           
         C         C         0.74002   0.47557   0.26044   0.168374  
         C         C         0.69689   0.44759   0.26494   -0.179268           
         C         C         0.65314   0.47449   0.26962   -0.040316           
         C         C         0.60187   0.45865   0.27145   0.328814  
         O         O         0.78840   0.54402   0.25755   -0.340239           
         H         H         0.95562   0.37698   0.24474   0.109071  
         H         H         0.87855   0.42346   0.24767   0.111317  
         H         H         0.69632   0.40798   0.26641   0.150503  
         C         C         0.02945   0.58977   0.25859   -0.135168           
         C         C         0.05607   0.54474   0.25358   0.065599  
         C         C         0.10768   0.54315   0.24986   -0.098617           
         C         C         0.26683   0.52314   0.23961   0.172896  
         C         C         0.31026   0.55048   0.23502   -0.179898           
         C         C         0.35323   0.52285   0.23205   -0.043517           
         C         C         0.40422   0.53831   0.23169   0.326724  
         O         O         0.21740   0.45538   0.24335   -0.340943           
         H         H         0.05029   0.62359   0.26116   0.111153  
         H         H         0.12852   0.57718   0.25058   0.111724  
         H         H         0.31162   0.59010   0.23169   0.151987  
         C         C         0.41027   0.02204   0.25404   -0.134179           
         C         C         0.45542   0.04974   0.25175   0.069605  
         C         C         0.45663   0.10095   0.25059   -0.102205           
         C         C         0.47586   0.26000   0.25461   0.169967  
         C         C         0.44892   0.30217   0.25252   -0.190295           
         C         C         0.47628   0.34548   0.25484   -0.039427           
         C         C         0.46183   0.39633   0.25086   0.340394  
         O         O         0.54287   0.21254   0.25759   -0.339443           
         H         H         0.37649   0.04175   0.25136   0.112306  
         H         H         0.42255   0.12036   0.24857   0.108757  
         H         H         0.41005   0.30220   0.24766   0.147904  
         C         C         0.59143   0.97453   0.24434   -0.135195           
         C         C         0.54635   0.94692   0.24626   0.068532  
         C         C         0.54567   0.89579   0.24443   -0.103759           
         C         C         0.52916   0.73733   0.24124   0.169343  
         C         C         0.55677   0.69569   0.24459   -0.191677           
         C         C         0.53000   0.65180   0.24386   -0.037326           
         C         C         0.54442   0.60095   0.25050   0.341205  
         O         O         0.46138   0.78333   0.23620   -0.337473           
         H         H         0.62547   0.95475   0.24489   0.112490  
         H         H         0.58036   0.87645   0.24249   0.108924  
         H         H         0.59548   0.69674   0.25036   0.147566  
         C         C         0.02905   0.49996   0.25148   0.009067  
         C         C         0.13298   0.49859   0.24553   -0.229259           
         B         B         0.18903   0.49789   0.24424   0.583198  
         N         N         0.43316   0.49747   0.23033   -0.451528           
         C         C         0.97696   0.50062   0.25356   0.007117  
         C         C         0.87336   0.50196   0.25674   -0.225014           
         B         B         0.81750   0.50207   0.25599   0.587101  
         N         N         0.57240   0.49945   0.27475   -0.453207           
         C         C         0.50075   0.02421   0.25007   0.002444  
         C         C         0.50104   0.12742   0.24974   -0.234876           
         B         B         0.50107   0.18334   0.25257   0.593489  
         N         N         0.50230   0.42575   0.25536   -0.429920           
         C         C         0.50062   0.97234   0.25038   0.005535  
         C         C         0.50106   0.86922   0.24722   -0.236890           
         B         B         0.50230   0.81341   0.24226   0.593387  
         N         N         0.50403   0.57127   0.24646   -0.432362           
         N         N         0.41838   0.58489   0.23373   -0.384885           
         N         N         0.58809   0.41201   0.26686   -0.388222           
         N         N         0.41634   0.40985   0.24352   -0.386655           
         N         N         0.58963   0.58731   0.25907   -0.389130           
         Zn        Zn        0.50268   0.49861   0.25125   0.728082  
         C         C         0.02217   0.40928   0.73607   -0.138977           
         C         C         0.04895   0.45385   0.74300   0.069507  
         C         C         0.10020   0.45468   0.74227   -0.101517           
         C         C         0.25953   0.47403   0.74062   0.168416  
         C         C         0.30230   0.44680   0.73616   -0.178395           
         C         C         0.34627   0.47444   0.73212   -0.041449           
         C         C         0.39712   0.45948   0.73183   0.326768  
         O         O         0.21189   0.54160   0.74377   -0.339764           
         H         H         0.04267   0.37512   0.73039   0.109800  
         H         H         0.12017   0.42033   0.73800   0.110940  
         H         H         0.30241   0.40721   0.73368   0.150669  
         C         C         0.97060   0.58877   0.76749   -0.135254           
         C         C         0.94389   0.54423   0.76015   0.067185  
         C         C         0.89239   0.54331   0.76309   -0.101486           
         C         C         0.73401   0.52658   0.76071   0.173352  
         C         C         0.69182   0.55470   0.76461   -0.179232           
         C         C         0.64749   0.52784   0.76735   -0.040776           
         C         C         0.59691   0.54311   0.76573   0.328331  
         O         O         0.78062   0.45792   0.75604   -0.338792           
         H         H         0.94966   0.62283   0.77601   0.109803  
         H         H         0.87153   0.57747   0.77233   0.111240  
         H         H         0.69249   0.59430   0.76744   0.151370  
         C         C         0.58926   0.02839   0.74345   -0.133996           
         C         C         0.54405   0.05457   0.74522   0.067297  
         C         C         0.54276   0.10571   0.74529   -0.103435           
         C         C         0.52094   0.26369   0.75820   0.169540  
         C         C         0.54762   0.30652   0.76156   -0.189098           
         C         C         0.52022   0.34894   0.75867   -0.037377           
         C         C         0.53522   0.39997   0.76015   0.339406  
         O         O         0.45475   0.21455   0.74978   -0.339798           
         H         H         0.62315   0.04929   0.74443   0.112387  
         H         H         0.57722   0.12624   0.74415   0.109520  
         H         H         0.58641   0.30763   0.76689   0.147678  
         C         C         0.40789   0.97476   0.75640   -0.134457           
         C         C         0.45329   0.94861   0.75349   0.068398  
         C         C         0.45478   0.89748   0.75198   -0.102815           
         C         C         0.47460   0.73949   0.73970   0.169035  
         C         C         0.44684   0.69697   0.73868   -0.191027           
         C         C         0.47350   0.65395   0.74111   -0.038326           
         C         C         0.45800   0.60280   0.74063   0.339487  
         O         O         0.54243   0.78769   0.74286   -0.338708           
         H         H         0.37391   0.95386   0.75588   0.112277  
         H         H         0.42052   0.87698   0.75173   0.108622  
         H         H         0.40776   0.69656   0.73527   0.147409  
         C         C         0.97239   0.40942   0.73590   -0.133729           
         C         C         0.94480   0.45410   0.74387   0.065952  
         C         C         0.89344   0.45510   0.74559   -0.097665           
         C         C         0.73300   0.47506   0.75948   0.172570  
         C         C         0.68942   0.44804   0.76354   -0.178051           
         C         C         0.64646   0.47600   0.76789   -0.047168           
         C         C         0.59533   0.46086   0.76865   0.329717  
         O         O         0.78241   0.54252   0.75837   -0.341137           
         H         H         0.95279   0.37543   0.72808   0.108382  
         H         H         0.87409   0.42086   0.73846   0.111182  
         H         H         0.68802   0.40844   0.76443   0.151159  
         C         C         0.02095   0.58870   0.76363   -0.134736           
         C         C         0.04864   0.54402   0.75465   0.068087  
         C         C         0.10019   0.54301   0.75156   -0.099930           
         C         C         0.25982   0.52551   0.74111   0.169889  
         C         C         0.30294   0.55334   0.73748   -0.178808           
         C         C         0.34665   0.52629   0.73237   -0.041882           
         C         C         0.39799   0.54179   0.73088   0.329970  
         O         O         0.21139   0.45715   0.74346   -0.339509           
         H         H         0.04081   0.62270   0.76994   0.109088  
         H         H         0.12032   0.57719   0.75484   0.110978  
         H         H         0.30343   0.59294   0.73770   0.150745  
         C         C         0.40762   0.02456   0.75604   -0.135678           
         C         C         0.45262   0.05264   0.75309   0.068612  
         C         C         0.45315   0.10382   0.75328   -0.104075           
         C         C         0.47022   0.26265   0.75371   0.168667  
         C         C         0.44266   0.30437   0.75078   -0.190999           
         C         C         0.46926   0.34814   0.75372   -0.038604           
         C         C         0.45498   0.39908   0.74809   0.340893  
         O         O         0.53796   0.21643   0.75819   -0.337961           
         H         H         0.37343   0.04398   0.75504   0.112358  
         H         H         0.41841   0.12293   0.75457   0.108912  
         H         H         0.40414   0.30350   0.74370   0.147592  
         C         C         0.58943   0.97858   0.74478   -0.136782           
         C         C         0.54455   0.95050   0.74680   0.068152  
         C         C         0.54410   0.89930   0.74590   -0.102444           
         C         C         0.52577   0.73983   0.74106   0.169912  
         C         C         0.55246   0.69760   0.74437   -0.189685           
         C         C         0.52480   0.65429   0.74391   -0.038402           
         C         C         0.53878   0.60336   0.74980   0.339182  
         O         O         0.45834   0.78713   0.74033   -0.338990           
         H         H         0.62348   0.95916   0.74695   0.114586  
         H         H         0.57872   0.88022   0.74553   0.108686  
         H         H         0.59117   0.69756   0.75021   0.147010  
         C         C         0.02261   0.49899   0.74933   0.007982  
         C         C         0.12632   0.49884   0.74572   -0.226307           
         B         B         0.18230   0.49913   0.74552   0.586444  
         N         N         0.42735   0.50082   0.72657   -0.453351           
         C         C         0.97052   0.49909   0.75126   0.007443  
         C         C         0.86674   0.49928   0.75584   -0.228193           
         B         B         0.81078   0.49986   0.75611   0.583037  
         N         N         0.56652   0.50190   0.77097   -0.453550           
         C         C         0.49848   0.02752   0.74944   0.005327  
         C         C         0.49769   0.13068   0.74990   -0.235256           
         B         B         0.49687   0.18649   0.75239   0.593760  
         N         N         0.49542   0.42856   0.75285   -0.431311           
         C         C         0.49878   0.97564   0.74989   0.004422  
         C         C         0.49982   0.87242   0.74748   -0.233901           
         B         B         0.50032   0.81648   0.74354   0.592657  
         N         N         0.49798   0.57409   0.74655   -0.429897           
         N         N         0.41214   0.58828   0.73547   -0.388326           
         N         N         0.58092   0.41437   0.76609   -0.385551           
         N         N         0.40987   0.41301   0.73956   -0.388209           
         N         N         0.58411   0.58950   0.75750   -0.385219           
         Zn        Zn        0.49719   0.50129   0.74916   0.727753 

