
##########################################################################
#               Crystallographic Information Format file
#               Produced by PyCifRW module
#
#  This is a CIF file.  CIF has been adopted by the International
#  Union of Crystallography as the standard for data archiving and
#  transmission.
#
#  For information on this file format, follow the CIF links at
#  http://www.iucr.org
##########################################################################

data_image0

_cell_length_a                          36.0487
_cell_length_b                          35.9317
_cell_length_c                          7.8935
_cell_angle_alpha                       81.2357
_cell_angle_beta                        64.0931
_cell_angle_gamma                       90.1695
_symmetry_space_group_name_H-M          'P 1'
_space_group_name_Hall                  'P 1'
loop_
  _atom_site_type_symbol
  _atom_site_label
  _atom_site_fract_x
  _atom_site_fract_y
  _atom_site_fract_z
  _atom_site_charge
         Zn        Zn        0.50245   0.50107   0.25117   0.726460  
         C         C         0.02096   0.49890   0.27709   0.017935  
         C         C         0.14226   0.49602   0.25360   0.185719  
         C         C         0.22409   0.49804   0.21138   -0.234766           
         B         B         0.26720   0.49896   0.20619   0.586891  
         N         N         0.10037   0.49581   0.27282   -0.208416           
         N         N         0.44940   0.50122   0.22777   -0.452041           
         C         C         0.98189   0.50064   0.27311   0.014917  
         C         C         0.86318   0.50509   0.25878   0.188284  
         C         C         0.78365   0.50556   0.26678   -0.232476           
         B         B         0.74090   0.50507   0.26772   0.585073  
         N         N         0.90337   0.50426   0.26057   -0.206763           
         N         N         0.55562   0.50113   0.27626   -0.453767           
         C         C         0.50360   0.02096   0.25259   0.023482  
         C         C         0.50257   0.14026   0.24937   0.185275  
         C         C         0.50572   0.21886   0.22597   -0.237358           
         B         B         0.50649   0.26165   0.22685   0.614408  
         N         N         0.50172   0.09957   0.26198   -0.202308           
         N         N         0.50274   0.44552   0.25700   -0.434518           
         C         C         0.50511   0.98167   0.24184   0.024594  
         C         C         0.50556   0.86249   0.23862   0.184706  
         C         C         0.50122   0.78397   0.26013   -0.235456           
         B         B         0.49988   0.74097   0.26432   0.614880  
         N         N         0.50693   0.90313   0.22913   -0.205228           
         N         N         0.50215   0.55666   0.24818   -0.434775           
         C         C         0.02176   0.43333   0.23558   -0.081477           
         C         C         0.04054   0.46481   0.25891   -0.069195           
         C         C         0.08081   0.46194   0.26590   0.424109  
         C         C         0.15566   0.46509   0.33650   -0.168168           
         C         C         0.19636   0.46606   0.31240   -0.033070           
         C         C         0.32460   0.47988   0.21916   0.174865  
         C         C         0.35638   0.45915   0.22638   -0.178420           
         C         C         0.38919   0.48067   0.22358   -0.043270           
         C         C         0.42738   0.46945   0.23083   0.329195  
         O         O         0.09641   0.43155   0.26491   -0.407710           
         O         O         0.28840   0.46675   0.22033   -0.334815           
         H         H         0.03750   0.40739   0.22222   0.138025  
         H         H         0.13480   0.44045   0.41961   0.133545  
         H         H         0.20633   0.44179   0.37796   0.113062  
         H         H         0.35616   0.42872   0.23343   0.153333  
         C         C         0.98062   0.56601   0.31596   -0.069829           
         C         C         0.96172   0.53440   0.29455   -0.074675           
         C         C         0.92023   0.53644   0.29890   0.421273  
         C         C         0.84801   0.53923   0.21212   -0.171971           
         C         C         0.80851   0.53924   0.22146   -0.035451           
         C         C         0.68198   0.52346   0.26921   0.172884  
         C         C         0.64912   0.54370   0.27183   -0.177451           
         C         C         0.61633   0.52198   0.27554   -0.043794           
         C         C         0.57760   0.53291   0.27346   0.332917  
         O         O         0.90157   0.56492   0.33330   -0.393541           
         O         O         0.71842   0.53691   0.26532   -0.338422           
         H         H         0.96435   0.59164   0.33464   0.135526  
         H         H         0.86647   0.56570   0.17170   0.135439  
         H         H         0.79723   0.56610   0.18804   0.110383  
         H         H         0.64843   0.57392   0.27197   0.151552  
         C         C         0.56909   0.02082   0.27093   -0.075541           
         C         C         0.53597   0.04026   0.26752   -0.061242           
         C         C         0.53488   0.08106   0.27960   0.429768  
         C         C         0.53694   0.16251   0.10530   -0.151615           
         C         C         0.53875   0.20158   0.09708   -0.047766           
         C         C         0.52442   0.31983   0.24324   0.167901  
         C         C         0.54435   0.35194   0.25304   -0.188113           
         C         C         0.52305   0.38465   0.25647   -0.037475           
         C         C         0.53361   0.42351   0.26341   0.341422  
         O         O         0.56115   0.09807   0.30538   -0.425400           
         O         O         0.53796   0.28374   0.23329   -0.343780           
         H         H         0.59360   0.03628   0.28284   0.129132  
         H         H         0.56173   0.14920   0.00150   0.134506  
         H         H         0.56579   0.21882   0.98656   0.106775  
         H         H         0.57415   0.35214   0.25652   0.150020  
         C         C         0.43990   0.98189   0.22038   -0.072797           
         C         C         0.47293   0.96252   0.22475   -0.066559           
         C         C         0.47424   0.92200   0.20873   0.431394  
         C         C         0.47086   0.84048   0.38186   -0.155985           
         C         C         0.46851   0.80148   0.38941   -0.047397           
         C         C         0.48116   0.68251   0.25574   0.167180  
         C         C         0.46103   0.65041   0.24747   -0.185980           
         C         C         0.48193   0.61756   0.24799   -0.039146           
         C         C         0.47150   0.57878   0.23995   0.341850  
         O         O         0.44858   0.90546   0.17723   -0.427229           
         O         O         0.46827   0.71881   0.25932   -0.344843           
         H         H         0.41570   0.96639   0.20631   0.131272  
         H         H         0.44638   0.85387   0.48670   0.137464  
         H         H         0.44140   0.78440   0.50044   0.106631  
         H         H         0.43159   0.65043   0.24042   0.148652  
         C         C         0.98380   0.43541   0.22622   -0.066761           
         C         C         0.96387   0.46878   0.24453   -0.065478           
         C         C         0.92565   0.47138   0.21856   0.425750  
         C         C         0.83836   0.47128   0.30722   -0.162887           
         C         C         0.79980   0.47164   0.30723   -0.040857           
         C         C         0.68238   0.48409   0.27197   0.168860  
         C         C         0.65025   0.46229   0.27453   -0.182154           
         C         C         0.61686   0.48241   0.27612   -0.039199           
         C         C         0.57822   0.47013   0.27563   0.336830  
         O         O         0.91442   0.44616   0.15811   -0.415097           
         O         O         0.71873   0.47226   0.27306   -0.337452           
         H         H         0.96968   0.41128   0.20160   0.132297  
         H         H         0.84890   0.44460   0.34541   0.131502  
         H         H         0.78149   0.44498   0.34308   0.112734  
         H         H         0.65050   0.43200   0.27642   0.152548  
         C         C         0.01936   0.56441   0.31837   -0.066067           
         C         C         0.03937   0.53114   0.30124   -0.053165           
         C         C         0.07928   0.52943   0.31241   0.429996  
         C         C         0.16987   0.52778   0.14624   -0.157848           
         C         C         0.20994   0.52894   0.12970   -0.053136           
         C         C         0.32535   0.51952   0.20670   0.169076  
         C         C         0.35728   0.54110   0.20670   -0.179505           
         C         C         0.38942   0.52044   0.21653   -0.043048           
         C         C         0.42740   0.53242   0.22297   0.337446  
         O         O         0.09338   0.55537   0.35735   -0.417645           
         O         O         0.28993   0.53174   0.19652   -0.341587           
         H         H         0.03422   0.58898   0.33564   0.134624  
         H         H         0.16004   0.55132   0.07607   0.135626  
         H         H         0.23091   0.55387   0.04791   0.114342  
         H         H         0.35776   0.57156   0.19839   0.151934  
         C         C         0.43828   0.02048   0.23223   -0.081052           
         C         C         0.46982   0.04005   0.24726   -0.073529           
         C         C         0.46780   0.08089   0.25539   0.430053  
         C         C         0.46927   0.15669   0.37822   -0.156409           
         C         C         0.47074   0.19586   0.36378   -0.048441           
         C         C         0.48559   0.31968   0.24054   0.170900  
         C         C         0.46439   0.35180   0.24171   -0.182677           
         C         C         0.48439   0.38453   0.24926   -0.043216           
         C         C         0.47259   0.42331   0.24822   0.342024  
         O         O         0.43841   0.09803   0.25445   -0.416251           
         O         O         0.47399   0.28361   0.23174   -0.339737           
         H         H         0.41265   0.03587   0.22811   0.133107  
         H         H         0.44287   0.13912   0.49021   0.138889  
         H         H         0.44479   0.20856   0.46531   0.111194  
         H         H         0.43489   0.35195   0.23525   0.150323  
         C         C         0.57060   0.98214   0.26000   -0.080579           
         C         C         0.53892   0.96248   0.24615   -0.077154           
         C         C         0.54100   0.92165   0.23541   0.428204  
         C         C         0.53836   0.84592   0.10788   -0.156584           
         C         C         0.53629   0.80673   0.12139   -0.045126           
         C         C         0.51967   0.68250   0.26169   0.172307  
         C         C         0.54045   0.65027   0.26460   -0.184671           
         C         C         0.52034   0.61758   0.25737   -0.041737           
         C         C         0.53212   0.57883   0.25827   0.341443  
         O         O         0.57058   0.90448   0.23362   -0.416449           
         O         O         0.53167   0.71870   0.26661   -0.340228           
         H         H         0.59640   0.96679   0.26266   0.135809  
         H         H         0.56481   0.86338   -0.00416  0.141027  
         H         H         0.56195   0.79384   0.01941   0.107799  
         H         H         0.56972   0.65003   0.27314   0.150154  
         N         N         0.43801   0.43393   0.23866   -0.386058           
         N         N         0.56677   0.56835   0.26737   -0.387656           
         N         N         0.56801   0.43462   0.27216   -0.386672           
         N         N         0.43751   0.56790   0.22728   -0.386906           
         Zn        Zn        0.49765   0.49935   0.75008   0.725340  
         C         C         0.01716   0.49675   0.76852   0.017624  
         C         C         0.13764   0.49686   0.75202   0.184192  
         C         C         0.21918   0.50020   0.71227   -0.237287           
         B         B         0.26236   0.50110   0.70587   0.590497  
         N         N         0.09603   0.49573   0.76866   -0.208772           
         N         N         0.44455   0.50028   0.72687   -0.451452           
         C         C         0.97822   0.49741   0.76353   0.017891  
         C         C         0.85718   0.49857   0.76204   0.201076  
         C         C         0.77712   0.49892   0.76987   -0.237277           
         B         B         0.73470   0.49891   0.77034   0.580641  
         N         N         0.89804   0.49837   0.75957   -0.202540           
         N         N         0.55058   0.49871   0.77171   -0.451493           
         C         C         0.49680   0.01932   0.74889   0.023329  
         C         C         0.49428   0.13825   0.75586   0.183424  
         C         C         0.49755   0.21654   0.74032   -0.236854           
         B         B         0.49843   0.25940   0.73868   0.613020  
         N         N         0.49367   0.09771   0.76284   -0.203174           
         N         N         0.49696   0.44379   0.75266   -0.436270           
         C         C         0.49889   0.98005   0.73795   0.025425  
         C         C         0.50108   0.86073   0.74374   0.184653  
         C         C         0.49803   0.78209   0.76994   -0.236740           
         B         B         0.49690   0.73915   0.77178   0.613320  
         N         N         0.50172   0.90144   0.72971   -0.201309           
         N         N         0.49798   0.55514   0.74706   -0.434940           
         C         C         0.01945   0.43096   0.73031   -0.076573           
         C         C         0.03755   0.46305   0.75183   -0.076367           
         C         C         0.07771   0.46135   0.75977   0.424474  
         C         C         0.15122   0.46643   0.83713   -0.169678           
         C         C         0.19173   0.46810   0.81507   -0.033523           
         C         C         0.31944   0.48112   0.71842   0.171521  
         C         C         0.35075   0.45979   0.72659   -0.177349           
         C         C         0.38399   0.48077   0.72278   -0.042656           
         C         C         0.42192   0.46884   0.73051   0.332914  
         O         O         0.09437   0.43149   0.75774   -0.408557           
         O         O         0.28291   0.46852   0.72137   -0.336108           
         H         H         0.03598   0.40543   0.71568   0.136769  
         H         H         0.13071   0.44158   0.91985   0.131642  
         H         H         0.20175   0.44436   0.88376   0.112702  
         H         H         0.34986   0.42933   0.73511   0.153664  
         C         C         0.97550   0.56309   0.80007   -0.079740           
         C         C         0.95770   0.53083   0.77778   -0.071385           
         C         C         0.91912   0.53305   0.75435   0.422018  
         C         C         0.83515   0.53131   0.78342   -0.173432           
         C         C         0.79639   0.53130   0.78559   -0.039287           
         C         C         0.67618   0.51832   0.77330   0.175488  
         C         C         0.64375   0.53923   0.77679   -0.182235           
         C         C         0.61112   0.51831   0.77514   -0.042668           
         C         C         0.57274   0.53003   0.77238   0.329221  
         O         O         0.90720   0.56441   0.72744   -0.395298           
         O         O         0.71226   0.53095   0.77435   -0.335146           
         H         H         0.95956   0.58889   0.80816   0.131624  
         H         H         0.84831   0.55701   0.79673   0.132667  
         H         H         0.78070   0.55731   0.80087   0.110059  
         H         H         0.64327   0.56928   0.78169   0.153742  
         C         C         0.56196   0.01998   0.77091   -0.073122           
         C         C         0.52866   0.03890   0.76650   -0.066468           
         C         C         0.52661   0.07935   0.78361   0.431282  
         C         C         0.52908   0.16067   0.61602   -0.153422           
         C         C         0.53092   0.19956   0.61161   -0.051259           
         C         C         0.51730   0.31787   0.74526   0.168670  
         C         C         0.53766   0.35004   0.75119   -0.188140           
         C         C         0.51656   0.38277   0.75271   -0.036973           
         C         C         0.52764   0.42148   0.75771   0.341845  
         O         O         0.55183   0.09631   0.81615   -0.426336           
         O         O         0.53041   0.28167   0.73959   -0.342461           
         H         H         0.58588   0.03574   0.78593   0.131619  
         H         H         0.55403   0.14762   0.51149   0.136051  
         H         H         0.55811   0.21698   0.50329   0.110682  
         H         H         0.56746   0.35020   0.75468   0.149885  
         C         C         0.43338   0.97920   0.71961   -0.075749           
         C         C         0.46676   0.96027   0.72333   -0.063185           
         C         C         0.46837   0.91947   0.71184   0.431146  
         C         C         0.46716   0.83852   0.89105   -0.151869           
         C         C         0.46539   0.79944   0.90077   -0.047754           
         C         C         0.47797   0.68106   0.75932   0.168483  
         C         C         0.45769   0.64921   0.74957   -0.188931           
         C         C         0.47853   0.61627   0.74740   -0.038168           
         C         C         0.46771   0.57768   0.73851   0.340463  
         O         O         0.44234   0.90200   0.68648   -0.425543           
         O         O         0.46493   0.71727   0.76779   -0.343275           
         H         H         0.40910   0.96328   0.70812   0.129615  
         H         H         0.44275   0.85188   -0.00356  0.134373  
         H         H         0.43874   0.78219   0.01411   0.106986  
         H         H         0.42808   0.64941   0.74419   0.149087  
         C         C         0.98065   0.43161   0.72875   -0.067119           
         C         C         0.95998   0.46451   0.74589   -0.051742           
         C         C         0.91798   0.46353   0.75650   0.428464  
         C         C         0.83812   0.46604   0.74329   -0.196803           
         C         C         0.79897   0.46641   0.75009   -0.027360           
         C         C         0.67662   0.47919   0.76776   0.169132  
         C         C         0.64455   0.45816   0.76629   -0.180473           
         C         C         0.61142   0.47894   0.77077   -0.043421           
         C         C         0.57286   0.46744   0.76891   0.336927  
         O         O         0.90205   0.43307   0.75937   -0.393084           
         O         O         0.71298   0.46674   0.76590   -0.337754           
         H         H         0.96588   0.40643   0.71625   0.133725  
         H         H         0.85349   0.44029   0.72499   0.134059  
         H         H         0.78557   0.44061   0.73562   0.105565  
         H         H         0.64478   0.42810   0.76189   0.152280  
         C         C         0.01345   0.56227   0.81016   -0.067697           
         C         C         0.03440   0.52950   0.79401   -0.056881           
         C         C         0.07408   0.52892   0.80732   0.434269  
         C         C         0.16479   0.52890   0.64505   -0.153889           
         C         C         0.20480   0.53066   0.62903   -0.047649           
         C         C         0.32104   0.52079   0.70365   0.166098  
         C         C         0.35335   0.54184   0.70340   -0.179685           
         C         C         0.38501   0.52057   0.71425   -0.042516           
         C         C         0.42316   0.53190   0.72082   0.337424  
         O         O         0.08732   0.55531   0.85291   -0.418625           
         O         O         0.28589   0.53361   0.69243   -0.341750           
         H         H         0.02726   0.58716   0.83039   0.133593  
         H         H         0.15457   0.55216   0.57508   0.131564  
         H         H         0.22544   0.55580   0.54749   0.111408  
         H         H         0.35450   0.57232   0.69440   0.151696  
         C         C         0.43139   0.01790   0.72980   -0.081716           
         C         C         0.46275   0.03801   0.74390   -0.073946           
         C         C         0.46018   0.07888   0.75345   0.424509  
         C         C         0.46080   0.15429   0.88573   -0.149873           
         C         C         0.46236   0.19341   0.87513   -0.045412           
         C         C         0.47827   0.31778   0.74453   0.172755  
         C         C         0.45724   0.34999   0.74397   -0.185184           
         C         C         0.47766   0.38286   0.74787   -0.042218           
         C         C         0.46631   0.42184   0.74653   0.341418  
         O         O         0.43071   0.09583   0.75177   -0.417370           
         O         O         0.46611   0.28146   0.74149   -0.340889           
         H         H         0.40548   0.03291   0.72626   0.135333  
         H         H         0.43423   0.13650   0.99464   0.136501  
         H         H         0.43616   0.20599   0.97588   0.107998  
         H         H         0.42753   0.35003   0.73965   0.150433  
         C         C         0.56422   0.98145   0.75790   -0.079796           
         C         C         0.53298   0.96143   0.74273   -0.074668           
         C         C         0.53558   0.92059   0.73415   0.428057  
         C         C         0.53400   0.84430   0.61289   -0.154887           
         C         C         0.53260   0.80509   0.62867   -0.045118           
         C         C         0.51679   0.68076   0.76224   0.171217  
         C         C         0.53735   0.64833   0.76406   -0.183641           
         C         C         0.51693   0.61582   0.75696   -0.041053           
         C         C         0.52813   0.57686   0.75817   0.342654  
         O         O         0.56535   0.90385   0.73322   -0.416562           
         O         O         0.52911   0.71681   0.76806   -0.339822           
         H         H         0.59011   0.96641   0.76139   0.132153  
         H         H         0.56002   0.86188   0.49859   0.135592  
         H         H         0.55826   0.79236   0.52575   0.108522  
         H         H         0.56661   0.64789   0.77267   0.150252  
         N         N         0.43173   0.43305   0.73894   -0.388699           
         N         N         0.56244   0.56565   0.76849   -0.388060           
         N         N         0.56236   0.43212   0.76445   -0.384599           
         N         N         0.43372   0.56725   0.72481   -0.388477 

