
##########################################################################
#               Crystallographic Information Format file
#               Produced by PyCifRW module
#
#  This is a CIF file.  CIF has been adopted by the International
#  Union of Crystallography as the standard for data archiving and
#  transmission.
#
#  For information on this file format, follow the CIF links at
#  http://www.iucr.org
##########################################################################

data_image0

_cell_length_a                          32.6216
_cell_length_b                          32.6156
_cell_length_c                          7.93897
_cell_angle_alpha                       113.104
_cell_angle_beta                        108.938
_cell_angle_gamma                       90.063
_symmetry_space_group_name_H-M          'P 1'
_space_group_name_Hall                  'P 1'
loop_
  _atom_site_type_symbol
  _atom_site_label
  _atom_site_fract_x
  _atom_site_fract_y
  _atom_site_fract_z
  _atom_site_charge
         Zn        Zn        0.49954   0.49872   0.24963   0.736544  
         C         C         0.02047   0.50139   0.25482   -0.030705           
         C         C         0.05762   0.49959   0.24819   -0.074274           
         C         C         0.10064   0.49851   0.24627   0.126933  
         C         C         0.18835   0.49828   0.25827   -0.234224           
         B         B         0.23550   0.49818   0.26002   0.582608  
         N         N         0.43835   0.49818   0.24980   -0.441599           
         C         C         0.97977   0.50308   0.26154   -0.032645           
         C         C         0.94255   0.50436   0.26733   -0.072046           
         C         C         0.89923   0.50423   0.26588   0.128215  
         C         C         0.81095   0.50154   0.24590   -0.235575           
         B         B         0.76346   0.50020   0.23889   0.581365  
         N         N         0.56053   0.49873   0.24715   -0.440287           
         C         C         0.50068   0.01853   0.24278   -0.032655           
         C         C         0.50009   0.05566   0.23694   -0.072737           
         C         C         0.50026   0.09892   0.23809   0.128610  
         C         C         0.50201   0.18737   0.25721   -0.231992           
         B         B         0.50221   0.23458   0.25995   0.580529  
         N         N         0.49997   0.43754   0.25199   -0.445768           
         C         C         0.50104   0.97789   0.24875   -0.034130           
         C         C         0.50181   0.94080   0.25490   -0.071098           
         C         C         0.50154   0.89776   0.25593   0.127470  
         C         C         0.49930   0.80985   0.24246   -0.230394           
         B         B         0.49822   0.76239   0.23724   0.579583  
         N         N         0.49874   0.55944   0.24446   -0.446664           
         C         C         0.12298   0.46201   0.25836   -0.127816           
         C         C         0.16601   0.46211   0.26383   -0.057868           
         C         C         0.29996   0.47656   0.25756   0.171413  
         C         C         0.33563   0.45356   0.25771   -0.183723           
         C         C         0.37163   0.47654   0.25528   -0.040923           
         C         C         0.41431   0.46376   0.25243   0.332163  
         O         O         0.26001   0.46270   0.25900   -0.339205           
         H         H         0.66423   0.42108   0.24088   0.150621  
         H         H         0.89172   0.56763   0.23998   0.117104  
         H         H         0.81454   0.56551   0.22497   0.110774  
         C         C         0.87567   0.53968   0.24866   -0.130184           
         C         C         0.83238   0.53814   0.23943   -0.055626           
         C         C         0.69864   0.52100   0.23790   0.172598  
         C         C         0.66287   0.54377   0.23859   -0.185615           
         C         C         0.62706   0.52047   0.24083   -0.040906           
         C         C         0.58444   0.53315   0.24432   0.331881  
         O         O         0.73840   0.53512   0.23584   -0.337483           
         H         H         0.33501   0.57613   0.25367   0.150592  
         H         H         0.10625   0.43445   0.26702   0.116892  
         H         H         0.18289   0.43395   0.27467   0.111009  
         C         C         0.53697   0.12022   0.23054   -0.132832           
         C         C         0.53768   0.16372   0.24066   -0.045945           
         C         C         0.52302   0.29904   0.25726   0.169193  
         C         C         0.54580   0.33472   0.25599   -0.187636           
         C         C         0.52241   0.37070   0.25499   -0.034801           
         C         C         0.53466   0.41335   0.25185   0.336786  
         O         O         0.53743   0.25934   0.25957   -0.337250           
         H         H         0.57558   0.66163   0.23120   0.151576  
         H         H         0.43824   0.89626   0.28686   0.118527  
         H         H         0.43630   0.81896   0.27548   0.109368  
         C         C         0.46520   0.87745   0.26997   -0.132013           
         C         C         0.46425   0.83423   0.26299   -0.046139           
         C         C         0.47648   0.69796   0.23876   0.169498  
         C         C         0.45342   0.66260   0.24123   -0.185348           
         C         C         0.47644   0.62633   0.24156   -0.035700           
         C         C         0.46408   0.58366   0.24449   0.337424  
         O         O         0.46267   0.73798   0.23768   -0.338388           
         H         H         0.42347   0.33419   0.26208   0.150497  
         H         H         0.56434   0.10190   0.21559   0.118340  
         H         H         0.56600   0.17974   0.23358   0.110219  
         C         C         0.87814   0.46780   0.27587   -0.137153           
         C         C         0.83480   0.46663   0.26561   -0.047748           
         C         C         0.69920   0.47794   0.23989   0.169472  
         C         C         0.66395   0.45435   0.24060   -0.189337           
         C         C         0.62750   0.47701   0.24170   -0.034003           
         C         C         0.58505   0.46423   0.24586   0.337109  
         O         O         0.73944   0.46456   0.24024   -0.337015           
         H         H         0.33614   0.42068   0.26189   0.149652  
         H         H         0.10551   0.56259   0.22773   0.118597  
         H         H         0.18233   0.56233   0.23760   0.109666  
         C         C         0.12277   0.53475   0.23914   -0.132941           
         C         C         0.16582   0.53445   0.24535   -0.044436           
         C         C         0.29979   0.51975   0.25683   0.170177  
         C         C         0.33513   0.54296   0.25509   -0.188637           
         C         C         0.37133   0.51993   0.25355   -0.033411           
         C         C         0.41380   0.53262   0.24986   0.336833  
         O         O         0.25987   0.53362   0.25898   -0.338135           
         H         H         0.66230   0.57687   0.23656   0.150742  
         H         H         0.89652   0.44106   0.29349   0.121163  
         H         H         0.81907   0.43859   0.27535   0.113209  
         C         C         0.46423   0.12234   0.25338   -0.128082           
         C         C         0.46535   0.16575   0.26258   -0.058386           
         C         C         0.47982   0.29873   0.25783   0.174413  
         C         C         0.45644   0.33418   0.25833   -0.183260           
         C         C         0.47901   0.37055   0.25677   -0.041573           
         C         C         0.46577   0.41306   0.25394   0.329166  
         O         O         0.46644   0.25861   0.25883   -0.341391           
         H         H         0.42031   0.66289   0.24368   0.150654  
         H         H         0.56480   0.88924   0.22511   0.117082  
         H         H         0.56317   0.81231   0.21671   0.111406  
         C         C         0.53709   0.87373   0.23790   -0.128723           
         C         C         0.53575   0.83060   0.23186   -0.060095           
         C         C         0.51958   0.69776   0.23663   0.175339  
         C         C         0.54269   0.66219   0.23618   -0.183754           
         C         C         0.51980   0.62624   0.23899   -0.042244           
         C         C         0.53296   0.58383   0.24235   0.328321  
         O         O         0.53343   0.73764   0.23545   -0.338617           
         H         H         0.57907   0.33510   0.25586   0.151219  
         H         H         0.43612   0.10602   0.26035   0.116508  
         H         H         0.43755   0.18357   0.27534   0.110902  
         N         N         0.42660   0.42486   0.25410   -0.391516           
         N         N         0.57209   0.57199   0.24234   -0.392100           
         N         N         0.57339   0.42537   0.24866   -0.387392           
         N         N         0.42530   0.57152   0.24692   -0.386532           
         Zn        Zn        0.49959   0.50109   0.74991   0.737397  
         C         C         0.02058   0.49885   0.75419   -0.031245           
         C         C         0.05775   0.49925   0.74798   -0.074534           
         C         C         0.10082   0.49962   0.74682   0.127403  
         C         C         0.18853   0.50174   0.76011   -0.233315           
         B         B         0.23564   0.50218   0.76178   0.582745  
         N         N         0.43825   0.50097   0.74883   -0.439815           
         C         C         0.97987   0.49886   0.76080   -0.032901           
         C         C         0.94264   0.49884   0.76640   -0.072972           
         C         C         0.89946   0.49911   0.76619   0.127584  
         C         C         0.81132   0.49815   0.74660   -0.234031           
         B         B         0.76391   0.49798   0.74056   0.581726  
         N         N         0.56080   0.50079   0.74759   -0.442753           
         C         C         0.50050   0.02122   0.74383   -0.032094           
         C         C         0.50045   0.05834   0.73782   -0.072742           
         C         C         0.50024   0.10159   0.73861   0.127540  
         C         C         0.50066   0.18973   0.75475   -0.230032           
         B         B         0.50039   0.23689   0.75700   0.578518  
         N         N         0.49946   0.44015   0.75288   -0.447427           
         C         C         0.50055   0.98061   0.75050   -0.033610           
         C         C         0.50065   0.94367   0.75821   -0.071847           
         C         C         0.50042   0.90056   0.75912   0.129694  
         C         C         0.49854   0.81207   0.74106   -0.230983           
         B         B         0.49800   0.76448   0.73488   0.580969  
         N         N         0.49962   0.56176   0.74460   -0.447396           
         C         C         0.12444   0.46419   0.76378   -0.127585           
         C         C         0.16744   0.46542   0.76957   -0.058440           
         C         C         0.29993   0.48026   0.75839   0.173808  
         C         C         0.33550   0.45715   0.75824   -0.185091           
         C         C         0.37145   0.47997   0.75493   -0.040272           
         C         C         0.41399   0.46685   0.75199   0.332337  
         O         O         0.26013   0.46670   0.76161   -0.338918           
         H         H         0.66286   0.42130   0.74231   0.150570  
         H         H         0.89327   0.56242   0.73888   0.117599  
         H         H         0.81615   0.56198   0.72543   0.110411  
         C         C         0.87662   0.53494   0.74843   -0.129731           
         C         C         0.83338   0.53427   0.73959   -0.055091           
         C         C         0.69966   0.52045   0.74073   0.172810  
         C         C         0.66438   0.54407   0.74098   -0.184324           
         C         C         0.62787   0.52160   0.74238   -0.039591           
         C         C         0.58526   0.53493   0.74507   0.332582  
         O         O         0.73993   0.53378   0.74085   -0.338723           
         H         H         0.33495   0.57954   0.75269   0.150175  
         H         H         0.10861   0.43652   0.77506   0.116444  
         H         H         0.18532   0.43804   0.78344   0.110626  
         C         C         0.53614   0.12281   0.72527   -0.132655           
         C         C         0.53620   0.16617   0.73385   -0.045348           
         C         C         0.52128   0.30130   0.75403   0.170529  
         C         C         0.54431   0.33686   0.75333   -0.184532           
         C         C         0.52124   0.37304   0.75365   -0.037797           
         C         C         0.53392   0.41568   0.75207   0.337974  
         O         O         0.53549   0.26150   0.75508   -0.338351           
         H         H         0.57672   0.66472   0.73421   0.150164  
         H         H         0.43553   0.89693   0.77273   0.118473  
         H         H         0.43389   0.81939   0.75739   0.109890  
         C         C         0.46330   0.87897   0.76252   -0.133416           
         C         C         0.46257   0.83553   0.75340   -0.045236           
         C         C         0.47682   0.69988   0.73592   0.169621  
         C         C         0.45404   0.66437   0.73826   -0.186525           
         C         C         0.47750   0.62849   0.74008   -0.036677           
         C         C         0.46498   0.58601   0.74354   0.336559  
         O         O         0.46253   0.73957   0.73299   -0.337339           
         H         H         0.42192   0.33691   0.75988   0.150162  
         H         H         0.56337   0.10458   0.70662   0.118921  
         H         H         0.56381   0.18206   0.72154   0.110079  
         C         C         0.87775   0.46311   0.77636   -0.136607           
         C         C         0.83441   0.46278   0.76612   -0.046619           
         C         C         0.69910   0.47716   0.74038   0.169167  
         C         C         0.66332   0.45450   0.74134   -0.189151           
         C         C         0.62752   0.47814   0.74339   -0.035035           
         C         C         0.58490   0.46606   0.74714   0.337179  
         O         O         0.73890   0.46266   0.73926   -0.337308           
         H         H         0.33605   0.42431   0.76297   0.150642  
         H         H         0.10314   0.56273   0.71869   0.121923  
         H         H         0.18024   0.56479   0.73142   0.109071  
         C         C         0.12159   0.53593   0.73510   -0.138451           
         C         C         0.16473   0.53684   0.74236   -0.044672           
         C         C         0.29981   0.52334   0.75656   0.168536  
         C         C         0.33516   0.54637   0.75399   -0.187606           
         C         C         0.37135   0.52329   0.75248   -0.035602           
         C         C         0.41397   0.53557   0.74859   0.335830  
         O         O         0.25995   0.53744   0.75939   -0.337406           
         H         H         0.66468   0.57711   0.73835   0.149960  
         H         H         0.89558   0.43601   0.79354   0.121377  
         H         H         0.81812   0.43513   0.77618   0.109347  
         C         C         0.46440   0.12500   0.75894   -0.126349           
         C         C         0.46484   0.16825   0.76634   -0.061905           
         C         C         0.47817   0.30119   0.75580   0.173920  
         C         C         0.45494   0.33674   0.75632   -0.182702           
         C         C         0.47782   0.37304   0.75528   -0.039808           
         C         C         0.46497   0.41573   0.75354   0.329089  
         O         O         0.46475   0.26112   0.75735   -0.339023           
         H         H         0.42081   0.66399   0.73916   0.151144  
         H         H         0.56542   0.89407   0.74707   0.116454  
         H         H         0.56392   0.81665   0.73301   0.110634  
         C         C         0.53690   0.87750   0.75005   -0.128296           
         C         C         0.53572   0.83411   0.74118   -0.058931           
         C         C         0.52012   0.70014   0.73602   0.173149  
         C         C         0.54363   0.66481   0.73689   -0.181412           
         C         C         0.52098   0.62852   0.73894   -0.041845           
         C         C         0.53406   0.58601   0.74283   0.329922  
         O         O         0.53362   0.74023   0.73505   -0.341506           
         H         H         0.57754   0.33698   0.75290   0.150459  
         H         H         0.43701   0.10883   0.77127   0.116290  
         H         H         0.43719   0.18605   0.78279   0.111618  
         N         N         0.42592   0.42784   0.75371   -0.391624           
         N         N         0.57320   0.57391   0.74327   -0.393086           
         N         N         0.57285   0.42730   0.74968   -0.386205           
         N         N         0.42602   0.57424   0.74540   -0.385824 

