
##########################################################################
#               Crystallographic Information Format file
#               Produced by PyCifRW module
#
#  This is a CIF file.  CIF has been adopted by the International
#  Union of Crystallography as the standard for data archiving and
#  transmission.
#
#  For information on this file format, follow the CIF links at
#  http://www.iucr.org
##########################################################################

data_image0

_cell_length_a                          36.9089
_cell_length_b                          36.917
_cell_length_c                          8.02536
_cell_angle_alpha                       68.8078
_cell_angle_beta                        67.9463
_cell_angle_gamma                       91.5898
_symmetry_space_group_name_H-M          'P 1'
_space_group_name_Hall                  'P 1'
loop_
  _atom_site_type_symbol
  _atom_site_label
  _atom_site_fract_x
  _atom_site_fract_y
  _atom_site_fract_z
  _atom_site_charge
         Zn        Zn        0.50262   0.49919   0.25048   0.736888  
         N         N         0.44850   0.49801   0.24974   -0.444803           
         B         B         0.26998   0.49540   0.23135   0.577975  
         C         C         0.22845   0.49497   0.23139   -0.234179           
         C         C         0.15053   0.49411   0.24649   0.139062  
         C         C         0.11223   0.49462   0.24750   -0.101124           
         C         C         0.07963   0.49621   0.24177   -0.099500           
         C         C         0.04177   0.49842   0.23906   0.126702  
         N         N         0.55665   0.50029   0.25205   -0.443086           
         B         B         0.73586   0.50387   0.26275   0.582316  
         C         C         0.77769   0.50468   0.25936   -0.235211           
         C         C         0.85581   0.50609   0.24162   0.136542  
         C         C         0.89412   0.50583   0.24065   -0.100681           
         C         C         0.92679   0.50438   0.24563   -0.099614           
         C         C         0.96485   0.50234   0.24607   0.126851  
         N         N         0.50206   0.44467   0.25506   -0.440894           
         B         B         0.49875   0.26507   0.24958   0.582182  
         C         C         0.49706   0.22381   0.24613   -0.234042           
         C         C         0.49251   0.14648   0.25337   0.139640  
         C         C         0.49108   0.10847   0.25024   -0.101360           
         C         C         0.49070   0.07586   0.24359   -0.099131           
         C         C         0.49113   0.03771   0.24255   0.125058  
         N         N         0.50306   0.55349   0.24798   -0.444420           
         B         B         0.50041   0.73193   0.26612   0.581175  
         C         C         0.49906   0.77319   0.26803   -0.235881           
         C         C         0.49644   0.85067   0.25554   0.136454  
         C         C         0.49460   0.88890   0.25433   -0.101016           
         C         C         0.49259   0.92176   0.25648   -0.099439           
         C         C         0.49166   0.96011   0.25431   0.125963  
         N         N         0.43698   0.43254   0.25291   -0.392327           
         N         N         0.56788   0.56578   0.25087   -0.393563           
         N         N         0.56691   0.43507   0.25625   -0.386757           
         N         N         0.43791   0.56285   0.24847   -0.387531           
         O         O         0.29101   0.46412   0.23640   -0.338493           
         C         C         0.42669   0.46701   0.25027   0.327994  
         C         C         0.38925   0.47774   0.24569   -0.039083           
         C         C         0.35726   0.45679   0.24359   -0.185389           
         C         C         0.32625   0.47688   0.23965   0.175560  
         C         C         0.20859   0.46315   0.22171   -0.062584           
         C         C         0.17036   0.46258   0.22849   -0.136157           
         C         C         0.02112   0.46849   0.21945   -0.131675           
         H         H         0.35727   0.42749   0.24207   0.150379  
         H         H         0.22365   0.43880   0.20679   0.113125  
         H         H         0.15552   0.43833   0.21679   0.115808  
         H         H         0.03536   0.44407   0.19970   0.121267  
         O         O         0.71435   0.53472   0.26298   -0.340891           
         C         C         0.57824   0.53127   0.25284   0.329213  
         C         C         0.61566   0.52052   0.25782   -0.041036           
         C         C         0.64764   0.54156   0.25978   -0.182952           
         C         C         0.67895   0.52179   0.26126   0.171658  
         C         C         0.79728   0.53638   0.27096   -0.057348           
         C         C         0.83560   0.53721   0.26276   -0.133802           
         C         C         0.98555   0.53234   0.26500   -0.130237           
         H         H         0.64748   0.57083   0.26164   0.149963  
         H         H         0.78196   0.56043   0.28860   0.108770  
         H         H         0.85023   0.56129   0.27630   0.112929  
         H         H         0.97121   0.55667   0.28532   0.120364  
         O         O         0.53090   0.28695   0.24771   -0.338699           
         C         C         0.53244   0.42364   0.25500   0.336763  
         C         C         0.52076   0.38556   0.25388   -0.033991           
         C         C         0.54049   0.35367   0.25179   -0.190006           
         C         C         0.51916   0.32199   0.25268   0.170675  
         C         C         0.52798   0.20271   0.25558   -0.045894           
         C         C         0.52585   0.16474   0.25976   -0.135813           
         C         C         0.52175   0.01746   0.27098   -0.125264           
         H         H         0.57001   0.35387   0.25064   0.150734  
         H         H         0.55368   0.21633   0.26222   0.109538  
         H         H         0.54965   0.14857   0.26899   0.115245  
         H         H         0.54470   0.03187   0.29266   0.116411  
         O         O         0.46925   0.70903   0.26655   -0.339172           
         C         C         0.47242   0.57410   0.24960   0.339385  
         C         C         0.48344   0.61197   0.25242   -0.035995           
         C         C         0.46236   0.64279   0.25784   -0.185861           
         C         C         0.48248   0.67477   0.25940   0.171096  
         C         C         0.46651   0.79128   0.25493   -0.045787           
         C         C         0.46516   0.82933   0.24794   -0.133790           
         C         C         0.46105   0.98031   0.22589   -0.129442           
         H         H         0.43264   0.64135   0.26144   0.149590  
         H         H         0.44239   0.77528   0.24710   0.108397  
         H         H         0.44020   0.84325   0.23527   0.114453  
         H         H         0.43794   0.96588   0.20545   0.117288  
         O         O         0.71414   0.47213   0.26157   -0.338734           
         C         C         0.57777   0.46994   0.25557   0.333979  
         C         C         0.61547   0.48196   0.25842   -0.034416           
         C         C         0.64737   0.46231   0.26028   -0.190532           
         C         C         0.67885   0.48360   0.26070   0.171295  
         C         C         0.79812   0.47381   0.23713   -0.047053           
         C         C         0.83650   0.47439   0.22785   -0.137493           
         C         C         0.98341   0.47041   0.22276   -0.128953           
         H         H         0.64733   0.43288   0.26030   0.151401  
         H         H         0.78365   0.44950   0.22403   0.108738  
         H         H         0.85228   0.45078   0.20830   0.117373  
         H         H         0.96783   0.44775   0.20403   0.117968  
         O         O         0.29181   0.52719   0.23195   -0.337569           
         C         C         0.42723   0.52819   0.24741   0.338134  
         C         C         0.38957   0.51632   0.24433   -0.036152           
         C         C         0.35801   0.53632   0.23988   -0.186407           
         C         C         0.32666   0.51529   0.23752   0.170220  
         C         C         0.20848   0.52628   0.24955   -0.045615           
         C         C         0.17020   0.52594   0.25785   -0.136047           
         C         C         0.02332   0.53047   0.26106   -0.127749           
         H         H         0.35836   0.56582   0.23883   0.150202  
         H         H         0.22314   0.55073   0.26073   0.108579  
         H         H         0.15474   0.54983   0.27545   0.115845  
         H         H         0.03880   0.55320   0.27978   0.115538  
         O         O         0.46732   0.28599   0.25774   -0.340238           
         C         C         0.47137   0.42261   0.25502   0.331908  
         C         C         0.48218   0.38503   0.25481   -0.040779           
         C         C         0.46084   0.35276   0.25714   -0.184997           
         C         C         0.48056   0.32145   0.25701   0.173103  
         C         C         0.46371   0.20532   0.24158   -0.058954           
         C         C         0.46129   0.16740   0.24492   -0.135347           
         C         C         0.46085   0.01836   0.21979   -0.131798           
         H         H         0.43153   0.35284   0.25566   0.150406  
         H         H         0.43955   0.22117   0.23370   0.109824  
         H         H         0.43580   0.15365   0.23783   0.113660  
         H         H         0.43754   0.03391   0.19498   0.120647  
         O         O         0.53264   0.71217   0.25859   -0.340863           
         C         C         0.53357   0.57587   0.24850   0.332335  
         C         C         0.52209   0.61333   0.25062   -0.040904           
         C         C         0.54213   0.64609   0.25145   -0.185341           
         C         C         0.52105   0.67649   0.25556   0.173093  
         C         C         0.53025   0.79465   0.27482   -0.056871           
         C         C         0.52909   0.83263   0.26967   -0.136275           
         C         C         0.52203   0.97948   0.27650   -0.130382           
         H         H         0.57158   0.64713   0.25134   0.150450  
         H         H         0.55554   0.78111   0.28608   0.109312  
         H         H         0.55281   0.84866   0.27988   0.116148  
         H         H         0.54527   0.96388   0.30183   0.120250  
         Zn        Zn        0.49844   0.50078   0.75010   0.738189  
         N         N         0.44442   0.49929   0.74972   -0.443780           
         B         B         0.26622   0.49727   0.72889   0.579854  
         C         C         0.22455   0.49714   0.73065   -0.232941           
         C         C         0.14681   0.49735   0.74462   0.138570  
         C         C         0.10874   0.49816   0.74289   -0.100303           
         C         C         0.07625   0.49924   0.73576   -0.101057           
         C         C         0.03814   0.50010   0.73495   0.128317  
         N         N         0.55246   0.50201   0.75426   -0.446895           
         B         B         0.73151   0.50304   0.76598   0.579907  
         C         C         0.77333   0.50321   0.76200   -0.233966           
         C         C         0.85156   0.50367   0.74128   0.137847  
         C         C         0.88991   0.50310   0.73941   -0.100647           
         C         C         0.92250   0.50177   0.74549   -0.100761           
         C         C         0.96059   0.50079   0.74667   0.126841  
         N         N         0.49791   0.44638   0.75484   -0.443866           
         B         B         0.50012   0.26710   0.74780   0.580583  
         C         C         0.50094   0.22584   0.74575   -0.231637           
         C         C         0.50196   0.14892   0.74968   0.138503  
         C         C         0.50292   0.11105   0.74547   -0.101840           
         C         C         0.50369   0.07855   0.73782   -0.099323           
         C         C         0.50351   0.04031   0.73804   0.127020  
         N         N         0.49929   0.55511   0.74690   -0.441439           
         B         B         0.49870   0.73341   0.76690   0.580417  
         C         C         0.49882   0.77482   0.76850   -0.234204           
         C         C         0.50022   0.85265   0.75434   0.137349  
         C         C         0.50064   0.89101   0.75328   -0.101109           
         C         C         0.50098   0.92388   0.75682   -0.099200           
         C         C         0.50151   0.96228   0.75498   0.126131  
         N         N         0.43307   0.43374   0.75229   -0.392726           
         N         N         0.56413   0.56743   0.75101   -0.393342           
         N         N         0.56271   0.43691   0.75806   -0.385981           
         N         N         0.43427   0.56439   0.74641   -0.388600           
         O         O         0.28690   0.46569   0.73619   -0.339808           
         C         C         0.42271   0.46826   0.74995   0.329610  
         C         C         0.38532   0.47907   0.74473   -0.043031           
         C         C         0.35314   0.45808   0.74400   -0.182304           
         C         C         0.32232   0.47837   0.73841   0.171451  
         C         C         0.20397   0.46519   0.72519   -0.058371           
         C         C         0.16582   0.46514   0.73147   -0.135480           
         C         C         0.01795   0.46862   0.72346   -0.130613           
         H         H         0.35279   0.42850   0.74584   0.150322  
         H         H         0.21837   0.44030   0.71390   0.109193  
         H         H         0.15039   0.44084   0.72262   0.116030  
         H         H         0.03288   0.44432   0.70763   0.120885  
         O         O         0.71092   0.53466   0.76133   -0.341000           
         C         C         0.57445   0.53297   0.75347   0.330196  
         C         C         0.61191   0.52204   0.75779   -0.039744           
         C         C         0.64435   0.54264   0.75827   -0.184097           
         C         C         0.67523   0.52222   0.76104   0.175575  
         C         C         0.79396   0.53530   0.76645   -0.061910           
         C         C         0.83233   0.53563   0.75719   -0.133162           
         C         C         0.98078   0.53226   0.75838   -0.128839           
         H         H         0.64492   0.57205   0.75849   0.150269  
         H         H         0.77942   0.56003   0.77937   0.113233  
         H         H         0.84777   0.55998   0.76566   0.114311  
         H         H         0.96589   0.55661   0.77363   0.119924  
         O         O         0.53108   0.28987   0.74908   -0.337686           
         C         C         0.52830   0.42557   0.75669   0.337727  
         C         C         0.51719   0.38746   0.75663   -0.036324           
         C         C         0.53804   0.35635   0.75610   -0.186683           
         C         C         0.51805   0.32433   0.75412   0.170390  
         C         C         0.53310   0.20686   0.75709   -0.048025           
         C         C         0.53365   0.16904   0.75987   -0.136100           
         C         C         0.53441   0.01982   0.75921   -0.131690           
         H         H         0.56745   0.35780   0.75635   0.150529  
         H         H         0.55761   0.22194   0.76614   0.108691  
         H         H         0.55824   0.15433   0.77130   0.115384  
         H         H         0.55872   0.03426   0.77196   0.118507  
         O         O         0.46717   0.71102   0.76733   -0.339001           
         C         C         0.46866   0.57577   0.74845   0.335899  
         C         C         0.47979   0.61361   0.75230   -0.034607           
         C         C         0.45923   0.64479   0.75784   -0.187796           
         C         C         0.47982   0.67652   0.75970   0.171002  
         C         C         0.46718   0.79460   0.75576   -0.045501           
         C         C         0.46776   0.83285   0.74799   -0.136164           
         C         C         0.47078   0.98290   0.73225   -0.126255           
         H         H         0.42955   0.64387   0.76083   0.150181  
         H         H         0.44218   0.77975   0.74907   0.109036  
         H         H         0.44349   0.84804   0.73554   0.116099  
         H         H         0.44668   0.96851   0.71775   0.118545  
         O         O         0.70899   0.47130   0.76845   -0.336471           
         C         C         0.57352   0.47172   0.75726   0.337662  
         C         C         0.61123   0.48342   0.75961   -0.037607           
         C         C         0.64252   0.46304   0.76335   -0.184609           
         C         C         0.67424   0.48371   0.76429   0.168495  
         C         C         0.79274   0.47150   0.74541   -0.044422           
         C         C         0.83121   0.47166   0.73432   -0.135697           
         C         C         0.97989   0.46889   0.72976   -0.127993           
         H         H         0.64168   0.43347   0.76513   0.150421  
         H         H         0.77743   0.44684   0.73834   0.108747  
         H         H         0.84624   0.44741   0.71903   0.116224  
         H         H         0.96476   0.44495   0.71724   0.118527  
         O         O         0.28860   0.52925   0.72507   -0.338052           
         C         C         0.42343   0.52970   0.74566   0.335604  
         C         C         0.38587   0.51785   0.74149   -0.034120           
         C         C         0.35459   0.53810   0.73450   -0.188529           
         C         C         0.32316   0.51705   0.73284   0.170356  
         C         C         0.20527   0.52903   0.74536   -0.045264           
         C         C         0.16705   0.52922   0.75305   -0.136586           
         C         C         0.01881   0.53195   0.75253   -0.127588           
         H         H         0.35527   0.56784   0.73073   0.150785  
         H         H         0.22051   0.55357   0.75358   0.108220  
         H         H         0.15218   0.55365   0.76694   0.115279  
         H         H         0.03393   0.55589   0.76518   0.116875  
         O         O         0.46824   0.28723   0.75128   -0.340493           
         C         C         0.46745   0.42389   0.75453   0.331773  
         C         C         0.47886   0.38630   0.75486   -0.039748           
         C         C         0.45898   0.35357   0.75343   -0.186399           
         C         C         0.47980   0.32289   0.75404   0.173921  
         C         C         0.46926   0.20550   0.73733   -0.060939           
         C         C         0.46963   0.16781   0.73828   -0.133813           
         C         C         0.47175   0.02111   0.72417   -0.128988           
         H         H         0.42997   0.35283   0.74862   0.150541  
         H         H         0.44429   0.21982   0.72758   0.110003  
         H         H         0.44553   0.15270   0.72669   0.116210  
         H         H         0.44828   0.03692   0.70405   0.120196  
         O         O         0.53061   0.71308   0.75923   -0.339681           
         C         C         0.52973   0.57727   0.74852   0.332567  
         C         C         0.51839   0.61460   0.75110   -0.042005           
         C         C         0.53894   0.64696   0.75208   -0.184213           
         C         C         0.51839   0.67767   0.75597   0.173174  
         C         C         0.53118   0.79480   0.77381   -0.061085           
         C         C         0.53199   0.83294   0.76743   -0.134448           
         C         C         0.53333   0.98155   0.76811   -0.127700           
         H         H         0.56834   0.64740   0.75253   0.150427  
         H         H         0.55579   0.77994   0.78480   0.113031  
         H         H         0.55664   0.84790   0.77571   0.113862  
         H         H         0.55684   0.96575   0.78755   0.118416 

