
##########################################################################
#               Crystallographic Information Format file
#               Produced by PyCifRW module
#
#  This is a CIF file.  CIF has been adopted by the International
#  Union of Crystallography as the standard for data archiving and
#  transmission.
#
#  For information on this file format, follow the CIF links at
#  http://www.iucr.org
##########################################################################

data_image0

_cell_length_a                          30.3786
_cell_length_b                          30.2186
_cell_length_c                          7.9152
_cell_angle_alpha                       76.685
_cell_angle_beta                        125.529
_cell_angle_gamma                       120.426
_symmetry_space_group_name_H-M          'P 1'
_space_group_name_Hall                  'P 1'
loop_
  _atom_site_type_symbol
  _atom_site_label
  _atom_site_fract_x
  _atom_site_fract_y
  _atom_site_fract_z
  _atom_site_charge
         C         C         0.69192   0.33090   0.22313   0.026678  
         C         C         0.69872   0.38082   0.23277   0.026538  
         C         C         0.74959   0.42534   0.24180   -0.223405           
         C         C         0.79128   0.41882   0.24250   0.173952  
         C         C         0.78528   0.37001   0.23730   0.178421  
         C         C         0.73645   0.32596   0.22637   -0.223667           
         C         C         0.65301   0.38585   0.23015   0.034587  
         C         C         0.60054   0.34072   0.21274   0.031296  
         C         C         0.55536   0.34600   0.20401   -0.219658           
         C         C         0.56459   0.39469   0.22006   0.165647  
         C         C         0.61709   0.43888   0.24500   0.176939  
         C         C         0.66104   0.43556   0.24811   -0.234816           
         C         C         0.59432   0.28965   0.20786   0.024282  
         C         C         0.63964   0.28502   0.21286   0.030187  
         C         C         0.63449   0.23558   0.21245   -0.232820           
         C         C         0.58649   0.19330   0.21355   0.178176  
         C         C         0.54231   0.19763   0.21066   0.172193  
         C         C         0.54483   0.24458   0.20652   -0.227845           
         C         C         0.31170   0.71130   0.24004   0.028393  
         C         C         0.36179   0.71652   0.24413   0.029741  
         C         C         0.40631   0.76613   0.24408   -0.229383           
         C         C         0.40128   0.80831   0.25030   0.175422  
         C         C         0.35311   0.80332   0.25147   0.171983  
         C         C         0.30809   0.75604   0.24517   -0.229852           
         C         C         0.36788   0.67114   0.25193   0.032113  
         C         C         0.32327   0.62117   0.25295   0.028285  
         C         C         0.32939   0.57720   0.25867   -0.223548           
         C         C         0.37865   0.58421   0.26436   0.171199  
         C         C         0.42281   0.63322   0.26762   0.183308  
         C         C         0.41856   0.67670   0.26152   -0.228304           
         C         C         0.27118   0.61556   0.24384   0.030997  
         C         C         0.26515   0.66021   0.23456   0.029629  
         C         C         0.21390   0.65490   0.22023   -0.217951           
         C         C         0.17200   0.60665   0.22265   0.172755  
         C         C         0.17867   0.56299   0.23873   0.171631  
         C         C         0.22672   0.56622   0.24646   -0.222952           
         O         O         0.83400   0.37497   0.24321   -0.322129           
         O         O         0.61586   0.48227   0.26631   -0.321312           
         O         O         0.50077   0.14924   0.21958   -0.324993           
         O         O         0.35971   0.85176   0.25995   -0.322891           
         O         O         0.46716   0.62917   0.27491   -0.319547           
         O         O         0.13145   0.52021   0.24599   -0.322441           
         B         B         0.86902   0.42796   0.24626   0.581413  
         B         B         0.56087   0.46373   0.25079   0.595680  
         B         B         0.52103   0.11559   0.22852   0.605364  
         B         B         0.41276   0.88622   0.26135   0.602674  
         B         B         0.44826   0.57635   0.27002   0.584233  
         B         B         0.09561   0.53886   0.23224   0.592844  
         O         O         0.84314   0.45582   0.24588   -0.349780           
         O         O         0.52831   0.40941   0.22079   -0.343832           
         O         O         0.57402   0.14227   0.22439   -0.340748           
         O         O         0.43929   0.85997   0.25655   -0.338709           
         O         O         0.39348   0.54769   0.26504   -0.347618           
         O         O         0.11983   0.59235   0.21526   -0.341497           
         H         H         0.75563   0.46382   0.24409   0.137793  
         H         H         0.51475   0.31286   0.18958   0.136505  
         H         H         0.66794   0.23067   0.21572   0.136723  
         H         H         0.73280   0.28883   0.21838   0.136546  
         H         H         0.70093   0.47062   0.26695   0.139963  
         H         H         0.51046   0.24649   0.20869   0.138644  
         H         H         0.44403   0.77140   0.24205   0.135169  
         H         H         0.29593   0.53860   0.25513   0.138997  
         H         H         0.20753   0.68786   0.20988   0.136642  
         H         H         0.27161   0.75403   0.24638   0.138689  
         H         H         0.45335   0.71377   0.26139   0.137946  
         H         H         0.23008   0.53146   0.25762   0.140334  
         C         C         0.03812   0.50818   0.23966   -0.275423           
         C         C         0.48105   0.55037   0.27283   -0.256814           
         C         C         0.43998   0.94528   0.26513   -0.263204           
         C         C         0.49231   0.05707   0.24678   -0.268026           
         C         C         0.53616   0.49553   0.26389   -0.270799           
         C         C         0.92826   0.45467   0.25005   -0.257932           
         C         C         0.01498   0.45515   0.27783   0.166401  
         C         C         0.53698   0.57775   0.28135   0.163721  
         C         C         0.41200   0.97264   0.25726   0.160855  
         C         C         0.43778   0.02816   0.24719   0.152409  
         C         C         0.56465   0.55061   0.27876   0.172137  
         C         C         0.96040   0.42861   0.28220   0.165916  
         C         C         0.95274   0.50661   0.21591   -0.045536           
         C         C         0.48188   0.47039   0.25638   -0.053790           
         C         C         0.51903   0.02900   0.25995   -0.052601           
         C         C         0.49347   0.97498   0.26719   -0.051467           
         C         C         0.45526   0.49687   0.26116   -0.047001           
         C         C         0.00581   0.53240   0.21119   -0.053683           
         N         N         0.56884   0.62971   0.28806   -0.351198           
         N         N         0.35997   0.95134   0.25376   -0.342946           
         N         N         0.03982   0.42471   0.31225   -0.336273           
         N         N         0.61692   0.58237   0.28490   -0.344995           
         N         N         0.94490   0.37842   0.32021   -0.343873           
         N         N         0.40476   0.04765   0.23624   -0.342770           
         S         S         0.62724   0.64055   0.28982   0.441586  
         S         S         0.34706   0.99875   0.23789   0.437037  
         S         S         0.99609   0.36842   0.34519   0.447619  
         H         H         0.02227   0.57297   0.18314   0.114425  
         H         H         0.41279   0.47452   0.25521   0.112728  
         H         H         0.51577   0.95548   0.27022   0.112703  
         H         H         0.56034   0.04943   0.25841   0.113393  
         H         H         0.45910   0.42846   0.24769   0.113976  
         H         H         0.92961   0.52803   0.18978   0.112101  
         C         C         0.72564   0.33022   0.73480   0.031311  
         C         C         0.72988   0.37948   0.73714   0.030331  
         C         C         0.77973   0.42487   0.74258   -0.230266           
         C         C         0.82326   0.42000   0.74851   0.171522  
         C         C         0.81993   0.37180   0.75340   0.178521  
         C         C         0.77207   0.32707   0.74449   -0.209350           
         C         C         0.68303   0.38288   0.73350   0.028821  
         C         C         0.63190   0.33689   0.72039   0.031413  
         C         C         0.58524   0.33971   0.71063   -0.229827           
         C         C         0.59216   0.38749   0.72433   0.180450  
         C         C         0.64347   0.43260   0.74628   0.170656  
         C         C         0.68848   0.43156   0.74824   -0.218559           
         C         C         0.62835   0.28689   0.72201   0.030470  
         C         C         0.67456   0.28348   0.72851   0.031447  
         C         C         0.67114   0.23455   0.73295   -0.230139           
         C         C         0.62312   0.19171   0.73252   0.168798  
         C         C         0.57823   0.19520   0.72761   0.177397  
         C         C         0.57987   0.24162   0.72386   -0.227111           
         C         C         0.34690   0.71011   0.75843   0.027627  
         C         C         0.39626   0.71433   0.76053   0.030055  
         C         C         0.44132   0.76366   0.76097   -0.230694           
         C         C         0.43655   0.80623   0.76479   0.167613  
         C         C         0.38907   0.80195   0.76842   0.173097  
         C         C         0.34447   0.75520   0.76658   -0.226664           
         C         C         0.40029   0.66802   0.76338   0.030356  
         C         C         0.35451   0.61860   0.76188   0.034266  
         C         C         0.35853   0.57354   0.76457   -0.235342           
         C         C         0.40681   0.57901   0.76798   0.175368  
         C         C         0.45196   0.62748   0.77224   0.176315  
         C         C         0.44991   0.67192   0.77035   -0.206199           
         C         C         0.30332   0.61445   0.75405   0.023158  
         C         C         0.29915   0.65980   0.74928   0.030815  
         C         C         0.24881   0.65609   0.73666   -0.227889           
         C         C         0.20601   0.60832   0.73744   0.177989  
         C         C         0.21115   0.56402   0.74965   0.173758  
         C         C         0.25801   0.56579   0.75481   -0.217635           
         O         O         0.86988   0.37799   0.76460   -0.321509           
         O         O         0.64032   0.47489   0.76728   -0.325388           
         O         O         0.53709   0.14691   0.73693   -0.317044           
         O         O         0.39584   0.85037   0.77610   -0.315921           
         O         O         0.49450   0.62157   0.77415   -0.326979           
         O         O         0.16383   0.52183   0.75785   -0.324930           
         B         B         0.90329   0.43105   0.76251   0.594846  
         B         B         0.58567   0.45432   0.75702   0.580970  
         B         B         0.55778   0.11368   0.74706   0.603058  
         B         B         0.44823   0.88442   0.77450   0.600194  
         B         B         0.47418   0.56842   0.77075   0.590427  
         B         B         0.12963   0.54158   0.74922   0.579583  
         O         O         0.87479   0.45769   0.75123   -0.341754           
         O         O         0.55443   0.40017   0.72500   -0.344585           
         O         O         0.61096   0.14063   0.74311   -0.346526           
         O         O         0.47438   0.85788   0.76782   -0.346009           
         O         O         0.41949   0.54133   0.76513   -0.340528           
         O         O         0.15433   0.59504   0.73144   -0.345966           
         H         H         0.78358   0.46271   0.73898   0.136670  
         H         H         0.54552   0.30567   0.69805   0.137166  
         H         H         0.70558   0.23042   0.74003   0.137119  
         H         H         0.77089   0.29060   0.74469   0.137887  
         H         H         0.72741   0.46756   0.76590   0.139536  
         H         H         0.54516   0.24272   0.72643   0.138151  
         H         H         0.47886   0.76845   0.75890   0.136882  
         H         H         0.32439   0.53533   0.76063   0.137013  
         H         H         0.24384   0.68962   0.73010   0.136495  
         H         H         0.30899   0.75370   0.77253   0.136602  
         H         H         0.48533   0.70858   0.77066   0.137958  
         H         H         0.25968   0.53035   0.76217   0.139251  
         C         C         0.07186   0.51076   0.75427   -0.254928           
         C         C         0.50585   0.54146   0.77270   -0.263476           
         C         C         0.47554   0.94340   0.77705   -0.265889           
         C         C         0.52861   0.05514   0.76142   -0.263423           
         C         C         0.56045   0.48552   0.76997   -0.254836           
         C         C         0.96214   0.45762   0.76415   -0.268292           
         C         C         0.05040   0.45840   0.80240   0.178260  
         C         C         0.56323   0.56835   0.79176   0.173725  
         C         C         0.44775   0.97093   0.76980   0.169287  
         C         C         0.47399   0.02651   0.76121   0.167507  
         C         C         0.59055   0.54054   0.79184   0.178373  
         C         C         0.99574   0.43197   0.80618   0.175700  
         C         C         0.98532   0.50899   0.72195   -0.055197           
         C         C         0.50502   0.46071   0.75467   -0.061871           
         C         C         0.55472   0.02694   0.77124   -0.052251           
         C         C         0.52888   0.97283   0.77816   -0.052319           
         C         C         0.47870   0.48783   0.75663   -0.051924           
         C         C         0.03841   0.53465   0.71723   -0.055401           
         N         N         0.59743   0.62024   0.81136   -0.352492           
         N         N         0.39585   0.94987   0.76675   -0.339222           
         N         N         0.07787   0.42905   0.85329   -0.351293           
         N         N         0.64506   0.57185   0.81224   -0.342720           
         N         N         0.98257   0.38301   0.85917   -0.342878           
         N         N         0.44140   0.04627   0.75149   -0.350438           
         S         S         0.65778   0.63039   0.82804   0.439861  
         S         S         0.38355   0.99747   0.75348   0.435367  
         S         S         0.03614   0.37369   0.90036   0.427153  
         H         H         0.05400   0.57482   0.68324   0.115491  
         H         H         0.43536   0.46614   0.74499   0.113981  
         H         H         0.55114   0.95322   0.78158   0.113225  
         H         H         0.59605   0.04729   0.76972   0.113886  
         H         H         0.48097   0.41876   0.74006   0.114707  
         H         H         0.96129   0.53003   0.69052   0.118296 

