
##########################################################################
#               Crystallographic Information Format file
#               Produced by PyCifRW module
#
#  This is a CIF file.  CIF has been adopted by the International
#  Union of Crystallography as the standard for data archiving and
#  transmission.
#
#  For information on this file format, follow the CIF links at
#  http://www.iucr.org
##########################################################################

data_image0

_cell_length_a                          25.4867
_cell_length_b                          25.706
_cell_length_c                          9.27633
_cell_angle_alpha                       89.891
_cell_angle_beta                        90.0966
_cell_angle_gamma                       120.583
_symmetry_space_group_name_H-M          'P 1'
_space_group_name_Hall                  'P 1'
loop_
  _atom_site_type_symbol
  _atom_site_label
  _atom_site_fract_x
  _atom_site_fract_y
  _atom_site_fract_z
  _atom_site_charge
         C         C         0.56049   0.39114   0.63886   0.170529  
         C         C         0.55139   0.34374   0.55200   -0.236350           
         C         C         0.59950   0.35165   0.46201   0.065234  
         C         C         0.46756   0.43940   0.96117   -0.059812           
         O         O         0.52082   0.39377   0.73591   -0.348527           
         H         H         0.50794   0.30155   0.55202   0.130956  
         H         H         0.44171   0.39242   0.92695   0.106340  
         C         C         0.60621   0.16715   0.61807   0.169881  
         C         C         0.65513   0.20628   0.53318   -0.236755           
         C         C         0.65034   0.25000   0.45108   0.065974  
         C         C         0.55180   0.02184   0.93186   -0.058874           
         O         O         0.60065   0.12211   0.70957   -0.345159           
         H         H         0.69620   0.20345   0.53022   0.133202  
         H         H         0.59763   0.03971   0.88943   0.108294  
         C         C         0.83251   0.44119   0.63862   0.171477  
         C         C         0.79462   0.45159   0.55233   -0.237108           
         C         C         0.75271   0.40450   0.46194   0.065914  
         C         C         0.97646   0.53022   0.95967   -0.059396           
         O         O         0.87622   0.47955   0.73590   -0.346311           
         H         H         0.79713   0.49506   0.55339   0.131819  
         H         H         0.95763   0.55742   0.92148   0.107347  
         C         C         0.38985   0.55591   0.37624   0.171071  
         C         C         0.34344   0.54810   0.46719   -0.239454           
         C         C         0.35127   0.59836   0.54702   0.065880  
         C         C         0.44277   0.46126   0.06115   -0.056373           
         O         O         0.39278   0.51459   0.28587   -0.345170           
         H         H         0.30194   0.50438   0.47739   0.133487  
         H         H         0.39760   0.43124   0.10526   0.106403  
         C         C         0.16946   0.60958   0.37824   0.171344  
         C         C         0.20886   0.65809   0.46296   -0.237745           
         C         C         0.25152   0.65270   0.54958   0.065037  
         C         C         0.02369   0.55404   0.06005   -0.059830           
         O         O         0.12488   0.60419   0.28383   -0.347187           
         H         H         0.20749   0.69965   0.46254   0.131851  
         H         H         0.04166   0.59982   0.10005   0.107896  
         C         C         0.44083   0.83169   0.35278   0.170633  
         C         C         0.45142   0.79339   0.43628   -0.236338           
         C         C         0.40498   0.75293   0.53060   0.065783  
         C         C         0.52857   0.97504   0.03235   -0.059878           
         O         O         0.47845   0.87429   0.25244   -0.347495           
         H         H         0.49460   0.79458   0.43021   0.131135  
         H         H         0.55624   0.95634   0.06866   0.107548  
         C         C         0.44378   0.61156   0.36535   0.171148  
         C         C         0.45330   0.66089   0.44521   -0.236920           
         C         C         0.40614   0.65459   0.53636   0.064721  
         C         C         0.53406   0.55991   0.04781   -0.060868           
         O         O         0.48233   0.60720   0.26797   -0.348161           
         H         H         0.49620   0.70347   0.43775   0.130541  
         H         H         0.55971   0.60698   0.08142   0.106874  
         C         C         0.38653   0.83220   0.36367   0.171522  
         C         C         0.34092   0.79407   0.45739   -0.238942           
         C         C         0.34966   0.75297   0.54036   0.065768  
         C         C         0.43435   0.97639   0.04140   -0.057389           
         O         O         0.38830   0.87533   0.27100   -0.347029           
         H         H         0.29944   0.79590   0.46785   0.132868  
         H         H         0.38870   0.95884   0.08463   0.106682  
         C         C         0.17061   0.55591   0.37923   0.171215  
         C         C         0.21068   0.54886   0.46575   -0.237141           
         C         C         0.25232   0.59815   0.55131   0.066043  
         C         C         0.02494   0.46059   0.05723   -0.058228           
         O         O         0.12703   0.51514   0.28481   -0.347849           
         H         H         0.21027   0.50639   0.46764   0.131997  
         H         H         0.04409   0.43361   0.09490   0.106426  
         C         C         0.61487   0.44666   0.63531   0.171456  
         C         C         0.66261   0.45577   0.54759   -0.239125           
         C         C         0.65527   0.40725   0.46125   0.066193  
         C         C         0.55891   0.53804   0.94815   -0.058607           
         O         O         0.61078   0.48646   0.72868   -0.346964           
         H         H         0.70482   0.49918   0.54508   0.132195  
         H         H         0.60402   0.56804   0.90366   0.107572  
         C         C         0.83112   0.38626   0.63512   0.170593  
         C         C         0.79146   0.33988   0.54561   -0.236501           
         C         C         0.75101   0.34868   0.45891   0.064897  
         C         C         0.97766   0.43671   0.95687   -0.058749           
         O         O         0.87411   0.38835   0.73005   -0.348494           
         H         H         0.79130   0.29753   0.54196   0.131162  
         H         H         0.95982   0.39102   0.91638   0.105728  
         C         C         0.55248   0.16903   0.62066   0.170511  
         C         C         0.54564   0.20957   0.53649   -0.237874           
         C         C         0.59565   0.25143   0.45261   0.066251  
         C         C         0.45760   0.02316   0.94077   -0.058840           
         O         O         0.51153   0.12562   0.71522   -0.349163           
         H         H         0.50283   0.20924   0.53490   0.131324  
         H         H         0.43003   0.04205   0.90509   0.105462  
         C         C         0.58811   0.29812   0.36940   -0.236473           
         H         H         0.54106   0.27635   0.32935   0.105488  
         H         H         0.61675   0.31305   0.27308   0.100923  
         C         C         0.70620   0.29553   0.36673   -0.236780           
         H         H         0.72964   0.27264   0.32586   0.105424  
         H         H         0.69313   0.31111   0.27081   0.101820  
         C         C         0.70991   0.41699   0.37369   -0.236998           
         H         H         0.73523   0.46427   0.33787   0.106833  
         H         H         0.69563   0.39012   0.27483   0.100573  
         C         C         0.29797   0.58961   0.63872   -0.236093           
         H         H         0.27458   0.54341   0.68195   0.104604  
         H         H         0.31369   0.61916   0.73317   0.102945  
         C         C         0.29670   0.70847   0.63399   -0.237802           
         H         H         0.27272   0.73096   0.67386   0.106142  
         H         H         0.31285   0.69629   0.73042   0.102151  
         C         C         0.41748   0.71044   0.61887   -0.235180           
         H         H         0.46559   0.73530   0.65168   0.106571  
         H         H         0.39161   0.69787   0.71952   0.098835  
         C         C         0.52608   0.47730   0.90307   -0.221120           
         B         B         0.55242   0.45297   0.79055   0.587308  
         C         C         0.51664   0.04665   0.88390   -0.220923           
         B         B         0.54235   0.09749   0.77079   0.587521  
         C         C         0.95249   0.47107   0.90618   -0.219663           
         B         B         0.90152   0.44629   0.79216   0.586399  
         C         C         0.47566   0.52194   0.10650   -0.219066           
         B         B         0.45012   0.54714   0.21889   0.584697  
         C         C         0.04870   0.51961   0.11113   -0.220381           
         B         B         0.09960   0.54583   0.22523   0.587746  
         C         C         0.46940   0.95141   0.08883   -0.221038           
         B         B         0.44532   0.90084   0.20254   0.585698  
         C         C         0.55798   0.38825   0.13685   0.170633  
         C         C         0.54898   0.34058   0.05077   -0.237149           
         C         C         0.59715   0.34832   0.96101   0.066066  
         C         C         0.46854   0.43897   0.46621   -0.059684           
         O         O         0.51875   0.39114   0.23535   -0.348599           
         H         H         0.50587   0.29805   0.05230   0.130982  
         H         H         0.44262   0.39136   0.43729   0.106280  
         C         C         0.61218   0.16759   0.12423   0.171874  
         C         C         0.66015   0.20783   0.03841   -0.238646           
         C         C         0.65318   0.25027   0.95616   0.065819  
         C         C         0.55643   0.01788   0.43337   -0.058518           
         O         O         0.60813   0.12279   0.21501   -0.348568           
         H         H         0.70225   0.20690   0.03401   0.131999  
         H         H         0.60153   0.03370   0.38854   0.106550  
         C         C         0.83214   0.44643   0.13298   0.170913  
         C         C         0.79300   0.45442   0.04509   -0.234965           
         C         C         0.75172   0.40570   0.95747   0.064772  
         C         C         0.97876   0.53956   0.45500   -0.059160           
         O         O         0.87549   0.48651   0.22903   -0.348614           
         H         H         0.79403   0.49719   0.04282   0.131299  
         H         H         0.96235   0.56844   0.41406   0.106385  
         C         C         0.39126   0.55610   0.87421   0.171607  
         C         C         0.34391   0.54725   0.96314   -0.239758           
         C         C         0.35067   0.59671   0.04460   0.066481  
         C         C         0.44526   0.46228   0.56630   -0.058755           
         O         O         0.39552   0.51552   0.78417   -0.346491           
         H         H         0.30247   0.50332   0.97034   0.132835  
         H         H         0.40113   0.43288   0.61600   0.107455  
         C         C         0.17019   0.61167   0.87730   0.171513  
         C         C         0.21025   0.65916   0.96312   -0.236457           
         C         C         0.25183   0.65198   0.04926   0.066037  
         C         C         0.02544   0.56199   0.55679   -0.059121           
         O         O         0.12630   0.60853   0.78417   -0.347156           
         H         H         0.20977   0.70117   0.96419   0.131476  
         H         H         0.04544   0.60826   0.59510   0.106786  
         C         C         0.44234   0.82984   0.85770   0.171379  
         C         C         0.45228   0.79157   0.94272   -0.235846           
         C         C         0.40519   0.75126   0.03559   0.066041  
         C         C         0.53199   0.97085   0.53321   -0.059461           
         O         O         0.48081   0.87216   0.75802   -0.347897           
         H         H         0.49541   0.79266   0.93809   0.130908  
         H         H         0.55798   0.95000   0.56692   0.106299  
         C         C         0.44488   0.61210   0.86542   0.169428  
         C         C         0.45345   0.66061   0.94708   -0.235378           
         C         C         0.40561   0.65306   0.03751   0.064815  
         C         C         0.53565   0.56105   0.54082   -0.059706           
         O         O         0.48440   0.60882   0.76905   -0.346149           
         H         H         0.49620   0.70343   0.94213   0.131137  
         H         H         0.56154   0.60872   0.56926   0.106688  
         C         C         0.38807   0.83059   0.86556   0.169714  
         C         C         0.34185   0.79268   0.95844   -0.239131           
         C         C         0.35005   0.75158   0.04302   0.066247  
         C         C         0.44047   0.97700   0.54756   -0.059335           
         O         O         0.39073   0.87374   0.77135   -0.346130           
         H         H         0.30020   0.79437   0.96638   0.132795  
         H         H         0.39547   0.96129   0.59296   0.107492  
         C         C         0.16941   0.55703   0.87607   0.169901  
         C         C         0.20881   0.54836   0.96164   -0.236191           
         C         C         0.25135   0.59676   0.04845   0.064789  
         C         C         0.02135   0.46587   0.56014   -0.059757           
         O         O         0.12491   0.51767   0.78095   -0.347331           
         H         H         0.20718   0.50528   0.96277   0.131742  
         H         H         0.03767   0.43695   0.60141   0.107909  
         C         C         0.61222   0.44385   0.13167   0.170972  
         C         C         0.65948   0.45320   0.04199   -0.237871           
         C         C         0.65235   0.40442   0.95724   0.065390  
         C         C         0.55900   0.53770   0.44093   -0.059193           
         O         O         0.60871   0.48380   0.22539   -0.345626           
         H         H         0.70115   0.49699   0.03673   0.132929  
         H         H         0.60315   0.56714   0.39129   0.107164  
         C         C         0.83247   0.39236   0.13332   0.169881  
         C         C         0.79359   0.34454   0.04628   -0.235339           
         C         C         0.75199   0.35088   0.95799   0.063504  
         C         C         0.97474   0.44347   0.45818   -0.059109           
         O         O         0.87608   0.39657   0.22917   -0.345613           
         H         H         0.79502   0.30303   0.04558   0.131791  
         H         H         0.95477   0.39722   0.41990   0.107737  
         C         C         0.55755   0.16771   0.12810   0.169782  
         C         C         0.54881   0.20738   0.04530   -0.236533           
         C         C         0.59750   0.24979   0.95898   0.066018  
         C         C         0.46495   0.02407   0.44772   -0.058543           
         O         O         0.51747   0.12341   0.22180   -0.346656           
         H         H         0.50533   0.20565   0.04590   0.131444  
         H         H         0.43895   0.04501   0.41462   0.107074  
         C         C         0.58699   0.29409   0.87286   -0.236387           
         H         H         0.53958   0.27008   0.83480   0.106680  
         H         H         0.61483   0.30859   0.77513   0.100890  
         C         C         0.70788   0.29613   0.86902   -0.236385           
         H         H         0.73235   0.27406   0.82962   0.106164  
         H         H         0.69348   0.30982   0.77208   0.101546  
         C         C         0.70697   0.41492   0.86841   -0.236969           
         H         H         0.73040   0.46167   0.82869   0.105143  
         H         H         0.69280   0.38669   0.77178   0.101235  
         C         C         0.29645   0.58679   0.13472   -0.236439           
         H         H         0.27275   0.53999   0.17426   0.106183  
         H         H         0.31155   0.61492   0.23166   0.102017  
         C         C         0.29691   0.70695   0.13583   -0.237661           
         H         H         0.27301   0.72938   0.17647   0.105740  
         H         H         0.31260   0.69405   0.23188   0.102577  
         C         C         0.41641   0.70791   0.12334   -0.236497           
         H         H         0.46415   0.73223   0.15899   0.105272  
         H         H         0.38940   0.69420   0.22224   0.099729  
         C         C         0.52589   0.47617   0.40201   -0.218677           
         B         B         0.55084   0.45054   0.28923   0.586274  
         C         C         0.52334   0.04530   0.38855   -0.220737           
         B         B         0.54950   0.09640   0.27598   0.587181  
         C         C         0.95260   0.47990   0.40350   -0.219986           
         B         B         0.90206   0.45487   0.28845   0.586291  
         C         C         0.47842   0.52371   0.60569   -0.220192           
         B         B         0.45305   0.54900   0.71832   0.584773  
         C         C         0.04766   0.52561   0.61115   -0.219351           
         B         B         0.09890   0.55025   0.72438   0.586189  
         C         C         0.47360   0.94958   0.59213   -0.219762           
         B         B         0.44829   0.89898   0.70562   0.585120 

