
##########################################################################
#               Crystallographic Information Format file
#               Produced by PyCifRW module
#
#  This is a CIF file.  CIF has been adopted by the International
#  Union of Crystallography as the standard for data archiving and
#  transmission.
#
#  For information on this file format, follow the CIF links at
#  http://www.iucr.org
##########################################################################

data_image0

_cell_length_a                          14.9718
_cell_length_b                          14.8307
_cell_length_c                          8.10817
_cell_angle_alpha                       92.3215
_cell_angle_beta                        78.2175
_cell_angle_gamma                       120.188
_symmetry_space_group_name_H-M          'P 1'
_space_group_name_Hall                  'P 1'
loop_
  _atom_site_type_symbol
  _atom_site_label
  _atom_site_fract_x
  _atom_site_fract_y
  _atom_site_fract_z
  _atom_site_charge
         B         B         0.44450   0.71957   0.96337   0.443180  
         H         H         0.53830   0.76746   0.91781   -0.142848           
         B         B         0.27217   0.71641   0.02667   0.444346  
         H         H         0.22330   0.76014   0.06378   -0.141410           
         B         B         0.27412   0.54856   0.00245   0.450759  
         H         H         0.22717   0.45557   0.01005   -0.138552           
         C         C         0.55945   0.27879   -0.00080  -0.189398           
         C         C         0.71910   0.27805   0.00639   -0.189474           
         C         C         0.72205   0.44179   0.99339   -0.185593           
         C         C         0.61106   0.22214   0.00394   0.077340  
         H         H         0.76570   0.52680   0.98689   0.104153  
         C         C         0.77531   0.38762   0.00440   0.081729  
         H         H         0.47465   0.23663   0.00626   0.100840  
         C         C         0.61407   0.38858   0.99018   0.079973  
         H         H         0.76137   0.23600   0.00427   0.100845  
         C         C         0.53614   0.59691   0.04524   -0.180836           
         C         C         0.59169   0.54482   0.04612   -0.116818           
         H         H         0.44275   0.33039   0.85060   0.105578  
         H         H         0.34569   0.42290   0.84680   0.116091  
         C         C         0.40532   0.94509   0.93831   -0.176847           
         C         C         0.46025   0.05351   0.94050   -0.118950           
         H         H         0.65726   0.08286   0.12300   0.106262  
         H         H         0.56085   0.89178   0.11921   0.113034  
         C         C         0.03812   0.45034   0.09804   -0.177196           
         C         C         0.93100   0.39848   0.09462   -0.123126           
         H         H         0.92993   0.58034   0.85532   0.105866  
         H         H         0.11901   0.67198   0.86048   0.111193  
         C         C         0.41239   0.45578   0.90849   -0.176931           
         C         C         0.46771   0.40358   0.91124   -0.120151           
         H         H         0.65827   0.57857   0.10844   0.108082  
         H         H         0.56049   0.67011   0.10548   0.112578  
         C         C         0.06584   0.59640   0.93074   -0.184332           
         C         C         0.95861   0.54441   0.92872   -0.113393           
         H         H         0.87845   0.32282   0.16500   0.108118  
         H         H         0.06795   0.41488   0.16967   0.115832  
         C         C         0.53375   0.93709   0.06469   -0.179600           
         C         C         0.58846   0.04567   0.06590   -0.117342           
         H         H         0.43315   0.09785   0.88329   0.105459  
         H         H         0.33654   0.90694   0.88133   0.114520  
         C         C         0.55812   0.44617   0.98118   0.047305  
         C         C         0.44523   0.55295   0.97756   0.229204  
         C         C         0.55311   0.10673   0.00398   0.046715  
         C         C         0.44153   0.88528   0.00041   0.229598  
         C         C         0.88868   0.44409   0.01003   0.047249  
         C         C         0.10708   0.55004   0.01520   0.229491  
         N         N         0.38603   0.77378   -0.00259  -0.420848           
         N         N         0.21797   0.60477   0.01366   -0.419875           
         N         N         0.38766   0.60665   0.98198   -0.419114           
         B         B         0.44697   0.72429   0.46606   0.441472  
         H         H         0.54110   0.77278   0.42772   -0.142000           
         B         B         0.27416   0.72006   0.52372   0.443548  
         H         H         0.22425   0.76273   0.56123   -0.141406           
         B         B         0.27749   0.55293   0.49230   0.452668  
         H         H         0.23183   0.46015   0.49189   -0.138696           
         C         C         0.56075   0.28358   0.50290   -0.190326           
         C         C         0.72028   0.28235   0.50897   -0.187213           
         C         C         0.72303   0.44619   0.50154   -0.185192           
         C         C         0.61214   0.22663   0.50669   0.076133  
         H         H         0.76608   0.53107   0.49912   0.104008  
         C         C         0.77652   0.39182   0.50865   0.079933  
         H         H         0.47607   0.24186   0.50871   0.101213  
         C         C         0.61535   0.39331   0.49685   0.081218  
         H         H         0.76286   0.24049   0.50514   0.100631  
         C         C         0.53523   0.60001   0.55327   -0.183953           
         C         C         0.59058   0.54804   0.55724   -0.115747           
         H         H         0.45043   0.33832   0.34496   0.105172  
         H         H         0.35463   0.43105   0.33402   0.115883  
         C         C         0.40636   0.94925   0.44147   -0.178088           
         C         C         0.46099   0.05773   0.44357   -0.118353           
         H         H         0.65879   0.08760   0.62427   0.105182  
         H         H         0.56300   0.89691   0.62090   0.113224  
         C         C         0.04160   0.45380   0.59110   -0.178031           
         C         C         0.93408   0.40219   0.59084   -0.119375           
         H         H         0.92990   0.58543   0.36013   0.107291  
         H         H         0.11962   0.67666   0.36026   0.112975  
         C         C         0.41815   0.46247   0.40257   -0.177150           
         C         C         0.47297   0.41019   0.40886   -0.121378           
         H         H         0.65441   0.58021   0.62551   0.105592  
         H         H         0.55721   0.67171   0.61732   0.112673  
         C         C         0.06722   0.60059   0.42903   -0.184837           
         C         C         0.95953   0.54891   0.43024   -0.116534           
         H         H         0.88219   0.32624   0.66040   0.104710  
         H         H         0.07232   0.41801   0.66007   0.116482  
         C         C         0.53545   0.94169   0.56619   -0.178353           
         C         C         0.58985   0.05027   0.56748   -0.115989           
         H         H         0.43308   0.10175   0.38760   0.105907  
         H         H         0.33684   0.91084   0.38633   0.115049  
         C         C         0.55988   0.45117   0.48701   0.046203  
         C         C         0.44785   0.55773   0.47683   0.228447  
         C         C         0.55423   0.11122   0.50602   0.045536  
         C         C         0.44300   0.88951   0.50244   0.229168  
         C         C         0.89039   0.44823   0.51077   0.048846  
         C         C         0.10978   0.55386   0.50941   0.230916  
         N         N         0.38793   0.77801   0.49806   -0.419171           
         N         N         0.22080   0.60877   0.50680   -0.420732           
         N         N         0.39052   0.61139   0.47787   -0.420265 

