
##########################################################################
#               Crystallographic Information Format file
#               Produced by PyCifRW module
#
#  This is a CIF file.  CIF has been adopted by the International
#  Union of Crystallography as the standard for data archiving and
#  transmission.
#
#  For information on this file format, follow the CIF links at
#  http://www.iucr.org
##########################################################################

data_image0

_cell_length_a                          14.7457
_cell_length_b                          14.8209
_cell_length_c                          7.86935
_cell_angle_alpha                       89.3311
_cell_angle_beta                        117.507
_cell_angle_gamma                       120.272
_symmetry_space_group_name_H-M          'P 1'
_space_group_name_Hall                  'P 1'
loop_
  _atom_site_type_symbol
  _atom_site_label
  _atom_site_fract_x
  _atom_site_fract_y
  _atom_site_fract_z
  _atom_site_charge
         C         C         0.60872   0.38528   0.24730   0.406287  
         C         C         0.55162   0.44407   0.24701   -0.168359           
         C         C         0.61584   0.23543   0.27044   0.404678  
         C         C         0.55822   0.11929   0.27012   -0.168578           
         C         C         0.76588   0.38726   0.25606   0.390149  
         C         C         0.88350   0.44596   0.25855   -0.181905           
         C         C         0.38224   0.61836   0.25083   0.404211  
         C         C         0.43920   0.56003   0.24683   -0.169390           
         C         C         0.38188   0.77171   0.25051   0.407226  
         C         C         0.44056   0.88846   0.25500   -0.170468           
         C         C         0.23085   0.61912   0.26173   0.390730  
         C         C         0.11401   0.56127   0.26240   -0.181796           
         C         C         0.60412   0.55460   0.24871   0.151909  
         F         F         0.61294   0.71455   0.25002   -0.077256           
         C         C         0.44943   0.05890   0.27595   0.154271  
         F         F         0.29039   0.90409   0.27469   -0.081708           
         C         C         0.94105   0.39434   0.25297   0.155324  
         F         F         0.09537   0.39058   0.24992   -0.073996           
         C         C         0.38658   0.44934   0.24415   0.151840  
         F         F         0.38136   0.29052   0.24972   -0.077173           
         C         C         0.55139   0.94962   0.25539   0.156256  
         F         F         0.70880   0.10438   0.25023   -0.083612           
         C         C         0.05624   0.61281   0.26806   0.159828  
         F         F         0.90525   0.61812   0.28314   -0.075589           
         C         C         0.55082   0.61017   0.24932   0.155686  
         F         F         0.70952   0.61387   0.25011   -0.081612           
         C         C         0.05193   0.45009   0.25649   0.156304  
         F         F         0.89200   0.28827   0.24173   -0.074572           
         C         C         0.39236   0.94839   0.26600   0.153839  
         F         F         0.39586   0.10494   0.29941   -0.078010           
         C         C         0.44069   0.39422   0.24576   0.154370  
         F         F         0.28086   0.39007   0.24153   -0.080874           
         C         C         0.94633   0.55769   0.26782   0.154448  
         F         F         0.10433   0.71819   0.27533   -0.074272           
         C         C         0.60671   0.05947   0.25934   0.153291  
         F         F         0.60944   0.90457   0.24938   -0.076705           
         N         N         0.43440   0.72140   0.23900   -0.373817           
         N         N         0.27869   0.72329   0.25748   -0.384325           
         N         N         0.28180   0.56445   0.26617   -0.385189           
         N         N         0.55746   0.28304   0.26342   -0.372548           
         N         N         0.72413   0.28661   0.27898   -0.383712           
         N         N         0.70870   0.43828   0.23101   -0.381508           
         C         C         0.61113   0.37717   0.74849   0.407371  
         C         C         0.55323   0.43548   0.74504   -0.169703           
         C         C         0.61600   0.22618   0.76660   0.404312  
         C         C         0.55735   0.10962   0.76397   -0.169433           
         C         C         0.76777   0.37861   0.75635   0.391365  
         C         C         0.88660   0.43817   0.76312   -0.182033           
         C         C         0.38406   0.60943   0.75093   0.406643  
         C         C         0.44137   0.55123   0.74848   -0.172158           
         C         C         0.38276   0.76236   0.74758   0.406158  
         C         C         0.44021   0.87851   0.74802   -0.165860           
         C         C         0.23186   0.60970   0.75924   0.391607  
         C         C         0.11555   0.55174   0.76134   -0.183013           
         C         C         0.60529   0.54578   0.74560   0.150793  
         F         F         0.61374   0.70560   0.74978   -0.077385           
         C         C         0.44579   0.04764   0.76141   0.154534  
         F         F         0.28630   0.89116   0.75829   -0.081842           
         C         C         0.94719   0.38819   0.76670   0.157313  
         F         F         0.10046   0.38207   0.76667   -0.073783           
         C         C         0.38913   0.44066   0.74628   0.152648  
         F         F         0.38113   0.28089   0.74170   -0.076995           
         C         C         0.54986   0.93975   0.74515   0.153195  
         F         F         0.70967   0.09558   0.75000   -0.080057           
         C         C         0.05596   0.60243   0.76179   0.156561  
         F         F         0.90507   0.60907   0.77448   -0.075619           
         C         C         0.55228   0.60123   0.74880   0.156872  
         F         F         0.70923   0.60470   0.74224   -0.081991           
         C         C         0.05632   0.44213   0.76516   0.159890  
         F         F         0.90405   0.28538   0.77428   -0.072891           
         C         C         0.39048   0.93757   0.75572   0.151357  
         F         F         0.38638   0.09129   0.76707   -0.077017           
         C         C         0.44219   0.38539   0.74337   0.156019  
         F         F         0.28541   0.38137   0.74961   -0.081249           
         C         C         0.94728   0.54868   0.76493   0.150840  
         F         F         0.10078   0.70616   0.75907   -0.074609           
         C         C         0.60655   0.05025   0.75535   0.150426  
         F         F         0.60501   0.89467   0.72559   -0.077242           
         N         N         0.43678   0.71275   0.74035   -0.374544           
         N         N         0.27970   0.71388   0.75499   -0.385392           
         N         N         0.28225   0.55475   0.76234   -0.385980           
         N         N         0.56064   0.27550   0.76763   -0.374679           
         N         N         0.72225   0.27588   0.76877   -0.384595           
         N         N         0.71201   0.43060   0.73487   -0.383507 

