
##########################################################################
#               Crystallographic Information Format file
#               Produced by PyCifRW module
#
#  This is a CIF file.  CIF has been adopted by the International
#  Union of Crystallography as the standard for data archiving and
#  transmission.
#
#  For information on this file format, follow the CIF links at
#  http://www.iucr.org
##########################################################################

data_image0

_cell_length_a                          46.3629
_cell_length_b                          46.2781
_cell_length_c                          7.99625
_cell_angle_alpha                       104.78
_cell_angle_beta                        107.16
_cell_angle_gamma                       119.931
_symmetry_space_group_name_H-M          'P 1'
_space_group_name_Hall                  'P 1'
loop_
  _atom_site_type_symbol
  _atom_site_label
  _atom_site_fract_x
  _atom_site_fract_y
  _atom_site_fract_z
  _atom_site_charge
         C         C         0.03475   0.52374   0.28712   0.070214  
         C         C         0.10438   0.55772   0.27321   -0.226797           
         B         B         0.14160   0.57565   0.26420   0.566844  
         C         C         0.49984   0.51333   0.26158   0.059193  
         C         C         0.46447   0.54903   0.25913   -0.237681           
         B         B         0.44579   0.56859   0.25721   0.577784  
         C         C         0.50502   0.98799   0.23007   0.077954  
         C         C         0.47016   0.91802   0.24130   -0.230174           
         B         B         0.45075   0.87990   0.24245   0.573973  
         C         C         0.99724   0.50476   0.27958   0.073455  
         C         C         0.92335   0.46596   0.24762   -0.238072           
         B         B         0.88410   0.44534   0.23548   0.571293  
         C         C         0.51861   0.49523   0.26356   0.071361  
         C         C         0.55509   0.46066   0.26259   -0.239225           
         B         B         0.57464   0.44208   0.25673   0.578370  
         C         C         0.52343   0.02489   0.23123   0.068806  
         C         C         0.55988   0.09704   0.24438   -0.225380           
         B         B         0.57898   0.13553   0.24806   0.566829  
         C         C         0.05567   0.56094   0.31251   -0.141125           
         C         C         0.08937   0.57732   0.30326   -0.038365           
         C         C         0.19368   0.61571   0.25869   0.113008  
         C         C         0.22329   0.64679   0.25665   -0.003156           
         C         C         0.22282   0.67623   0.24090   -0.119682           
         C         C         0.25258   0.70549   0.23812   -0.123361           
         C         C         0.28483   0.70737   0.25467   0.065271  
         C         C         0.28523   0.67832   0.27347   -0.161433           
         C         C         0.25524   0.64742   0.27177   0.030763  
         O         O         0.16052   0.60917   0.24948   -0.332601           
         H         H         0.04546   0.57731   0.34041   0.101668  
         H         H         0.10459   0.60586   0.31991   0.099215  
         H         H         0.19836   0.67530   0.22911   0.117670  
         H         H         0.25072   0.72708   0.21990   0.104300  
         H         H         0.31033   0.68003   0.29396   0.099913  
         C         C         0.46752   0.49921   0.28687   -0.141304           
         C         C         0.45005   0.51649   0.28429   -0.046172           
         C         C         0.40613   0.58178   0.26098   0.112046  
         C         C         0.37550   0.58096   0.26565   -0.001990           
         C         C         0.34666   0.55283   0.28415   -0.131084           
         C         C         0.31818   0.55442   0.29429   -0.133738           
         C         C         0.31649   0.58350   0.28028   0.057245  
         C         C         0.34497   0.61081   0.25799   -0.159399           
         C         C         0.37539   0.61141   0.25517   0.038259  
         O         O         0.41189   0.55529   0.26579   -0.326908           
         H         H         0.45655   0.47517   0.31550   0.102993  
         H         H         0.42532   0.50505   0.30609   0.104520  
         H         H         0.34767   0.53038   0.29488   0.117749  
         H         H         0.29739   0.53320   0.31721   0.105402  
         H         H         0.34381   0.63293   0.24399   0.099249  
         C         C         0.52537   0.97376   0.27425   -0.141165           
         C         C         0.50828   0.93948   0.27839   -0.061725           
         C         C         0.43761   0.82633   0.23305   0.108931  
         C         C         0.43820   0.79578   0.22600   -0.003144           
         C         C         0.46749   0.79419   0.21944   -0.112636           
         C         C         0.46706   0.76415   0.22015   -0.130412           
         C         C         0.43738   0.73407   0.22751   0.059444  
         C         C         0.40800   0.73552   0.22834   -0.172212           
         C         C         0.40697   0.76534   0.22681   0.033621  
         O         O         0.46488   0.85910   0.23856   -0.331006           
         H         H         0.55518   0.99019   0.30896   0.100507  
         H         H         0.52460   0.92912   0.31257   0.104798  
         H         H         0.49042   0.81713   0.21411   0.116427  
         H         H         0.49014   0.76401   0.21509   0.105148  
         H         H         0.38495   0.71287   0.23358   0.099203  
         C         C         0.98117   0.47208   0.30315   -0.144153           
         C         C         0.94516   0.45314   0.28757   -0.043965           
         C         C         0.83207   0.40436   0.23800   0.111770  
         C         C         0.80349   0.37352   0.24587   -0.003282           
         C         C         0.80567   0.34530   0.26886   -0.116578           
         C         C         0.77647   0.31566   0.27225   -0.127455           
         C         C         0.74286   0.31183   0.24635   0.064551  
         C         C         0.74112   0.34003   0.22443   -0.175107           
         C         C         0.77097   0.37181   0.22957   0.037564  
         O         O         0.86539   0.41151   0.24736   -0.325570           
         H         H         0.99737   0.46169   0.33790   0.098131  
         H         H         0.93383   0.42834   0.31004   0.104796  
         H         H         0.83103   0.34772   0.28547   0.118406  
         H         H         0.77963   0.29515   0.29705   0.101851  
         H         H         0.71523   0.33704   0.19907   0.104491  
         C         C         0.55699   0.51574   0.30483   -0.138848           
         C         C         0.57464   0.49874   0.30202   -0.048917           
         C         C         0.61616   0.43161   0.25061   0.104770  
         C         C         0.64729   0.43365   0.24453   -0.009919           
         C         C         0.67738   0.46390   0.24161   -0.118755           
         C         C         0.70649   0.46359   0.23171   -0.133632           
         C         C         0.70662   0.43249   0.21942   0.062140  
         C         C         0.67684   0.40288   0.22437   -0.170121           
         C         C         0.64717   0.40235   0.23994   0.035325  
         O         O         0.60971   0.45803   0.25707   -0.335208           
         H         H         0.57330   0.54549   0.34060   0.104361  
         H         H         0.60416   0.51521   0.33184   0.105328  
         H         H         0.67705   0.48739   0.24550   0.118390  
         H         H         0.72925   0.48749   0.23101   0.103639  
         H         H         0.67602   0.37858   0.21222   0.102792  
         C         C         0.51012   0.04612   0.26669   -0.142543           
         C         C         0.52786   0.08126   0.27198   -0.050098           
         C         C         0.59181   0.18958   0.26790   0.113353  
         C         C         0.59102   0.22026   0.28262   -0.003846           
         C         C         0.56245   0.22202   0.30037   -0.109417           
         C         C         0.56227   0.25186   0.30216   -0.134826           
         C         C         0.59062   0.28158   0.28657   0.060978  
         C         C         0.61976   0.28039   0.27852   -0.180633           
         C         C         0.62119   0.25063   0.27591   0.032534  
         O         O         0.56560   0.15693   0.26689   -0.332327           
         H         H         0.48630   0.03535   0.29556   0.105828  
         H         H         0.51717   0.09719   0.30050   0.106057  
         H         H         0.54041   0.19936   0.31136   0.120404  
         H         H         0.53984   0.25219   0.31625   0.105931  
         H         H         0.64194   0.30296   0.26859   0.101170  
         C         C         0.55533   0.04060   0.20259   -0.146963           
         C         C         0.57320   0.07590   0.20911   -0.045498           
         C         C         0.61945   0.18812   0.24721   0.106723  
         C         C         0.65019   0.21742   0.24210   -0.001378           
         C         C         0.67895   0.21648   0.22141   -0.125143           
         C         C         0.70834   0.24645   0.22032   -0.127751           
         C         C         0.71094   0.27922   0.24242   0.065537  
         C         C         0.68216   0.27965   0.26175   -0.157505           
         C         C         0.65118   0.24953   0.25911   0.028132  
         O         O         0.61226   0.15447   0.23263   -0.333864           
         H         H         0.56571   0.02455   0.17032   0.100594  
         H         H         0.59762   0.08727   0.18483   0.104383  
         H         H         0.67729   0.19154   0.20429   0.116729  
         H         H         0.72954   0.24450   0.19937   0.103080  
         H         H         0.68427   0.30490   0.28423   0.100243  
         C         C         0.49911   0.45716   0.22529   -0.137086           
         C         C         0.51704   0.44039   0.22665   -0.045145           
         C         C         0.58688   0.40148   0.24895   0.113441  
         C         C         0.58576   0.37055   0.25088   0.002376  
         C         C         0.55681   0.34079   0.26141   -0.122790           
         C         C         0.55840   0.31233   0.27305   -0.126649           
         C         C         0.58882   0.31199   0.27276   0.060392  
         C         C         0.61687   0.34130   0.25795   -0.163521           
         C         C         0.61672   0.37108   0.24732   0.039570  
         O         O         0.56006   0.40674   0.25071   -0.327780           
         H         H         0.46935   0.44032   0.19146   0.106017  
         H         H         0.50125   0.41097   0.19733   0.106470  
         H         H         0.53379   0.34121   0.26546   0.116428  
         H         H         0.53615   0.29039   0.28607   0.105309  
         H         H         0.64049   0.34169   0.25855   0.100921  
         C         C         0.97544   0.51769   0.24020   -0.140081           
         C         C         0.93940   0.49874   0.22475   -0.054991           
         C         C         0.82976   0.43175   0.21687   0.103406  
         C         C         0.79891   0.43218   0.20521   0.001687  
         C         C         0.79615   0.46038   0.18625   -0.116198           
         C         C         0.76600   0.45985   0.18476   -0.130027           
         C         C         0.73739   0.43164   0.20616   0.060488  
         C         C         0.73998   0.40338   0.22003   -0.172887           
         C         C         0.76937   0.40193   0.21584   0.033670  
         O         O         0.86191   0.45806   0.21445   -0.333076           
         H         H         0.98623   0.54210   0.21474   0.103999  
         H         H         0.92295   0.50900   0.19079   0.107008  
         H         H         0.81804   0.48238   0.17151   0.118263  
         H         H         0.76443   0.48154   0.16593   0.106300  
         H         H         0.71898   0.38198   0.24095   0.098793  
         C         C         0.46689   0.96636   0.19198   -0.132725           
         C         C         0.44995   0.93235   0.19878   -0.044346           
         C         C         0.40877   0.82730   0.23739   0.110435  
         C         C         0.37753   0.79843   0.24154   0.000434  
         C         C         0.34896   0.80020   0.25834   -0.115016           
         C         C         0.31986   0.77152   0.26733   -0.130581           
         C         C         0.31688   0.73884   0.25301   0.062947  
         C         C         0.34535   0.73740   0.23589   -0.174333           
         C         C         0.37643   0.76656   0.23415   0.035146  
         O         O         0.41574   0.86028   0.24144   -0.327187           
         H         H         0.45011   0.97609   0.15352   0.105695  
         H         H         0.42033   0.91609   0.16745   0.108323  
         H         H         0.35066   0.82485   0.26624   0.115316  
         H         H         0.29921   0.77457   0.28795   0.105711  
         H         H         0.34327   0.71243   0.22225   0.102412  
         C         C         0.51401   0.54570   0.23466   -0.139076           
         C         C         0.49699   0.56333   0.23553   -0.048676           
         C         C         0.43496   0.61001   0.25075   0.106235  
         C         C         0.43718   0.64146   0.24646   -0.013338           
         C         C         0.46719   0.67130   0.24137   -0.119435           
         C         C         0.46740   0.70102   0.23627   -0.137384           
         C         C         0.43762   0.70258   0.23647   0.060591  
         C         C         0.40834   0.67306   0.24443   -0.171887           
         C         C         0.40664   0.64205   0.24835   0.039104  
         O         O         0.46050   0.60278   0.24749   -0.332171           
         H         H         0.53809   0.55668   0.20795   0.101920  
         H         H         0.50858   0.58818   0.21381   0.102327  
         H         H         0.48994   0.67023   0.23849   0.119078  
         H         H         0.49067   0.72311   0.22909   0.103857  
         H         H         0.38551   0.67383   0.24725   0.101707  
         C         C         0.05035   0.50454   0.26124   -0.144229           
         C         C         0.08444   0.52121   0.25634   -0.051306           
         C         C         0.19466   0.58734   0.27377   0.111125  
         C         C         0.22517   0.58623   0.28728   -0.002064           
         C         C         0.22628   0.55693   0.30066   -0.113050           
         C         C         0.25579   0.55634   0.30078   -0.136368           
         C         C         0.28616   0.58534   0.29180   0.065078  
         C         C         0.28586   0.61539   0.29052   -0.177243           
         C         C         0.25605   0.61687   0.28563   0.023183  
         O         O         0.16220   0.56126   0.27415   -0.332457           
         H         H         0.03515   0.47581   0.24146   0.104044  
         H         H         0.09561   0.50555   0.23547   0.107165  
         H         H         0.20322   0.53456   0.30790   0.120565  
         H         H         0.25524   0.53293   0.30695   0.106229  
         H         H         0.30938   0.63845   0.28966   0.100387  
         C         C         0.00774   0.50095   0.77597   0.079912  
         C         C         0.07779   0.53625   0.76704   -0.233521           
         B         B         0.11548   0.55550   0.76243   0.574955  
         C         C         0.48093   0.50421   0.74955   0.072642  
         C         C         0.44471   0.53909   0.75404   -0.239817           
         B         B         0.42524   0.55777   0.75779   0.577165  
         C         C         0.47338   0.96971   0.71022   0.078644  
         C         C         0.43901   0.89987   0.72200   -0.223680           
         B         B         0.42091   0.86291   0.73428   0.572318  
         C         C         0.97036   0.48189   0.76911   0.067230  
         C         C         0.89738   0.44433   0.74634   -0.226278           
         B         B         0.85862   0.42481   0.73930   0.565313  
         C         C         0.49967   0.48603   0.74863   0.060563  
         C         C         0.53564   0.45082   0.74886   -0.239892           
         B         B         0.55460   0.43152   0.75085   0.579050  
         C         C         0.49231   0.00732   0.71910   0.071774  
         C         C         0.53003   0.08074   0.74739   -0.242971           
         B         B         0.55015   0.11985   0.75766   0.572863  
         C         C         0.02835   0.53829   0.80317   -0.134524           
         C         C         0.06232   0.55536   0.79707   -0.044226           
         C         C         0.16732   0.59644   0.75855   0.109580  
         C         C         0.19617   0.62743   0.75261   -0.005191           
         C         C         0.19478   0.65639   0.73557   -0.109313           
         C         C         0.22408   0.68596   0.73222   -0.134463           
         C         C         0.25707   0.68897   0.75177   0.065608  
         C         C         0.25803   0.66008   0.76832   -0.170914           
         C         C         0.22810   0.62839   0.76307   0.037100  
         O         O         0.13470   0.58999   0.75700   -0.328436           
         H         H         0.01781   0.55432   0.83187   0.103524  
         H         H         0.07755   0.58414   0.81702   0.107835  
         H         H         0.16986   0.65458   0.72299   0.112410  
         H         H         0.22144   0.70707   0.71252   0.102185  
         H         H         0.28336   0.66230   0.78849   0.101957  
         C         C         0.44356   0.48468   0.72297   -0.137138           
         C         C         0.42605   0.50183   0.72736   -0.049358           
         C         C         0.38379   0.56848   0.76147   0.105868  
         C         C         0.35261   0.56656   0.76545   -0.011533           
         C         C         0.32257   0.53670   0.77065   -0.118934           
         C         C         0.29307   0.53686   0.77485   -0.134460           
         C         C         0.29222   0.56722   0.77701   0.065566  
         C         C         0.32196   0.59641   0.77006   -0.173282           
         C         C         0.35231   0.59733   0.76276   0.040258  
         O         O         0.39050   0.54237   0.76064   -0.334517           
         H         H         0.42785   0.45557   0.69759   0.103080  
         H         H         0.39733   0.48614   0.70874   0.105697  
         H         H         0.32315   0.51357   0.77238   0.118584  
         H         H         0.27053   0.51338   0.77882   0.103743  
         H         H         0.32196   0.61988   0.77142   0.100516  
         C         C         0.49373   0.95545   0.75197   -0.141634           
         C         C         0.47693   0.92131   0.75741   -0.047582           
         C         C         0.40901   0.81023   0.73199   0.109065  
         C         C         0.40982   0.77972   0.72177   -0.001501           
         C         C         0.43826   0.77773   0.70409   -0.112754           
         C         C         0.43816   0.74776   0.70222   -0.136281           
         C         C         0.40975   0.71824   0.71851   0.059488  
         C         C         0.38080   0.71976   0.72736   -0.177894           
         C         C         0.37950   0.74955   0.72855   0.030867  
         O         O         0.43524   0.84235   0.72957   -0.331422           
         H         H         0.52345   0.97198   0.78546   0.102800  
         H         H         0.49358   0.91134   0.79371   0.106509  
         H         H         0.46021   0.80023   0.69195   0.122007  
         H         H         0.46037   0.74709   0.68718   0.107302  
         H         H         0.35850   0.69729   0.73728   0.100179  
         C         C         0.95547   0.45077   0.80596   -0.139133           
         C         C         0.91967   0.43219   0.79324   -0.042330           
         C         C         0.80605   0.38410   0.73898   0.111457  
         C         C         0.77664   0.35308   0.74213   -0.001959           
         C         C         0.77747   0.32397   0.76059   -0.120139           
         C         C         0.74757   0.29448   0.76148   -0.123510           
         C         C         0.71504   0.29225   0.74184   0.066091  
         C         C         0.71445   0.32115   0.72230   -0.164033           
         C         C         0.74446   0.35214   0.72487   0.029558  
         O         O         0.84007   0.39166   0.75745   -0.329659           
         H         H         0.97270   0.44172   0.85060   0.100905  
         H         H         0.90913   0.40852   0.82496   0.103547  
         H         H         0.80228   0.32534   0.77579   0.118613  
         H         H         0.74950   0.27300   0.78070   0.104706  
         H         H         0.68907   0.31906   0.69877   0.099776  
         C         C         0.53181   0.50028   0.72156   -0.143407           
         C         C         0.54942   0.48314   0.72185   -0.044343           
         C         C         0.59443   0.41851   0.74769   0.113059  
         C         C         0.62511   0.41940   0.74296   -0.002149           
         C         C         0.65468   0.44824   0.73141   -0.130810           
         C         C         0.68297   0.44651   0.71917   -0.135744           
         C         C         0.68330   0.41608   0.71964   0.060667  
         C         C         0.65408   0.38801   0.73502   -0.159096           
         C         C         0.62452   0.38823   0.74578   0.038162  
         O         O         0.58895   0.44530   0.74649   -0.327081           
         H         H         0.54268   0.52442   0.69391   0.102399  
         H         H         0.57373   0.49458   0.69671   0.103369  
         H         H         0.65462   0.47167   0.73051   0.117931  
         H         H         0.70488   0.46886   0.70650   0.108042  
         H         H         0.65358   0.36432   0.73417   0.099142  
         C         C         0.47949   0.02877   0.76075   -0.141919           
         C         C         0.49778   0.06456   0.77289   -0.054706           
         C         C         0.56373   0.17411   0.77513   0.104271  
         C         C         0.56314   0.20477   0.78410   0.001679  
         C         C         0.53452   0.20701   0.79709   -0.115637           
         C         C         0.53472   0.23684   0.79407   -0.131288           
         C         C         0.56315   0.26584   0.77566   0.056089  
         C         C         0.59194   0.26383   0.76867   -0.171710           
         C         C         0.59355   0.23455   0.77551   0.030026  
         O         O         0.53714   0.14164   0.77460   -0.330533           
         H         H         0.45559   0.01770   0.78906   0.103741  
         H         H         0.48749   0.08067   0.80676   0.107780  
         H         H         0.51232   0.18489   0.80979   0.118583  
         H         H         0.51258   0.23788   0.80759   0.105042  
         H         H         0.61378   0.28531   0.75196   0.098551  
         C         C         0.52440   0.02339   0.69184   -0.139244           
         C         C         0.54296   0.05934   0.70650   -0.045124           
         C         C         0.59141   0.17225   0.75841   0.107964  
         C         C         0.62215   0.20080   0.75025   0.001311  
         C         C         0.64992   0.19842   0.72580   -0.119740           
         C         C         0.67906   0.22725   0.71782   -0.129281           
         C         C         0.68281   0.26058   0.74093   0.063963  
         C         C         0.65494   0.26248   0.76367   -0.173899           
         C         C         0.62371   0.23310   0.76368   0.034593  
         O         O         0.58412   0.13885   0.74846   -0.323614           
         H         H         0.53423   0.00705   0.65353   0.099465  
         H         H         0.56752   0.07096   0.68339   0.106173  
         H         H         0.64765   0.17327   0.71142   0.120867  
         H         H         0.69922   0.22399   0.69167   0.107044  
         H         H         0.65784   0.28809   0.78508   0.103435  
         C         C         0.48582   0.45354   0.77441   -0.141862           
         C         C         0.50326   0.43633   0.77373   -0.046663           
         C         C         0.56506   0.38967   0.75222   0.102786  
         C         C         0.56246   0.35780   0.75177   -0.010589           
         C         C         0.53195   0.32732   0.75098   -0.121574           
         C         C         0.53179   0.29757   0.75522   -0.137820           
         C         C         0.56237   0.29683   0.76240   0.063133  
         C         C         0.59196   0.32678   0.75828   -0.170691           
         C         C         0.59321   0.35744   0.75142   0.037930  
         O         O         0.53951   0.39688   0.75600   -0.331957           
         H         H         0.46152   0.44191   0.79922   0.102131  
         H         H         0.49202   0.41153   0.79606   0.102160  
         H         H         0.50871   0.32791   0.74914   0.119167  
         H         H         0.50790   0.27477   0.75568   0.104626  
         H         H         0.61568   0.32692   0.76385   0.102057  
         C         C         0.94770   0.49368   0.71941   -0.143199           
         C         C         0.91223   0.47552   0.71019   -0.056789           
         C         C         0.80418   0.41154   0.71532   0.108844  
         C         C         0.77337   0.41228   0.69931   -0.001834           
         C         C         0.77148   0.44085   0.67971   -0.113592           
         C         C         0.74213   0.44157   0.68176   -0.138188           
         C         C         0.71301   0.41371   0.70218   0.062979  
         C         C         0.71400   0.38430   0.70964   -0.180646           
         C         C         0.74326   0.38232   0.70827   0.027798  
         O         O         0.83679   0.43785   0.71668   -0.330797           
         H         H         0.95766   0.51666   0.68253   0.104126  
         H         H         0.89524   0.48504   0.67058   0.106513  
         H         H         0.79377   0.46251   0.66538   0.120013  
         H         H         0.74184   0.46416   0.66795   0.106239  
         H         H         0.69196   0.36256   0.72421   0.101250  
         C         C         0.43492   0.94750   0.66763   -0.146011           
         C         C         0.41824   0.91349   0.67470   -0.046563           
         C         C         0.38071   0.81145   0.74404   0.110672  
         C         C         0.34984   0.78239   0.74972   -0.001195           
         C         C         0.32061   0.78316   0.76455   -0.126148           
         C         C         0.29133   0.75364   0.76857   -0.124767           
         C         C         0.28907   0.72128   0.75402   0.066668  
         C         C         0.31830   0.72101   0.74028   -0.158512           
         C         C         0.34926   0.75074   0.74085   0.029314  
         O         O         0.38734   0.84440   0.74803   -0.339767           
         H         H         0.41793   0.95696   0.62733   0.101744  
         H         H         0.38860   0.89696   0.64302   0.099288  
         H         H         0.32181   0.80764   0.77454   0.116465  
         H         H         0.26997   0.75573   0.78613   0.099154  
         H         H         0.31685   0.69630   0.72542   0.100135  
         C         C         0.49960   0.54155   0.77664   -0.138447           
         C         C         0.48180   0.55845   0.77733   -0.045875           
         C         C         0.41268   0.59799   0.75752   0.113390  
         C         C         0.41370   0.62869   0.75175   0.000612  
         C         C         0.44258   0.65810   0.73906   -0.118797           
         C         C         0.44123   0.68668   0.72725   -0.132118           
         C         C         0.41118   0.68752   0.73002   0.060294  
         C         C         0.38304   0.65836   0.74487   -0.161480           
         C         C         0.38285   0.62840   0.75491   0.040834  
         O         O         0.43942   0.59255   0.75695   -0.328776           
         H         H         0.52852   0.55769   0.79837   0.106134  
         H         H         0.49686   0.58720   0.79671   0.105822  
         H         H         0.46543   0.65738   0.73448   0.116135  
         H         H         0.46346   0.70837   0.71296   0.106838  
         H         H         0.35986   0.65852   0.74695   0.099522  
         C         C         0.02334   0.48187   0.74661   -0.133931           
         C         C         0.05767   0.49919   0.74384   -0.058614           
         C         C         0.16864   0.56799   0.76920   0.108016  
         C         C         0.19924   0.56729   0.77937   0.002790  
         C         C         0.20171   0.53899   0.79869   -0.113178           
         C         C         0.23206   0.53964   0.80373   -0.130196           
         C         C         0.26099   0.56788   0.78404   0.058830  
         C         C         0.25852   0.59613   0.76858   -0.170453           
         C         C         0.22916   0.59773   0.77184   0.030934  
         O         O         0.13642   0.54149   0.76990   -0.332541           
         H         H         0.00773   0.45269   0.72062   0.100247  
         H         H         0.06895   0.48369   0.72058   0.104847  
         H         H         0.17962   0.51702   0.81257   0.117419  
         H         H         0.23359   0.51805   0.82429   0.105462  
         H         H         0.27982   0.61765   0.74958   0.099096 

