
##########################################################################
#               Crystallographic Information Format file
#               Produced by PyCifRW module
#
#  This is a CIF file.  CIF has been adopted by the International
#  Union of Crystallography as the standard for data archiving and
#  transmission.
#
#  For information on this file format, follow the CIF links at
#  http://www.iucr.org
##########################################################################

data_image0

_cell_length_a                          38.8305
_cell_length_b                          38.9024
_cell_length_c                          8.13167
_cell_angle_alpha                       106.792
_cell_angle_beta                        55.6878
_cell_angle_gamma                       120.118
_symmetry_space_group_name_H-M          'P 1'
_space_group_name_Hall                  'P 1'
loop_
  _atom_site_type_symbol
  _atom_site_label
  _atom_site_fract_x
  _atom_site_fract_y
  _atom_site_fract_z
  _atom_site_charge
         C         C         0.02170   0.53528   0.24856   -0.068798           
         C         C         0.15048   0.58786   0.25229   0.115523  
         C         C         0.18592   0.62575   0.24661   -0.001859           
         C         C         0.18636   0.66171   0.23827   -0.112412           
         C         C         0.22213   0.69775   0.23243   -0.129643           
         C         C         0.25935   0.69987   0.23505   0.057630  
         C         C         0.25895   0.66394   0.23925   -0.175515           
         C         C         0.22337   0.62650   0.24522   0.033211  
         O         O         0.11167   0.57976   0.25090   -0.332936           
         H         H         0.03803   0.56765   0.24810   0.107122  
         H         H         0.15828   0.66049   0.23411   0.119640  
         H         H         0.22151   0.72471   0.22333   0.105729  
         H         H         0.28689   0.66479   0.24248   0.100310  
         C         C         0.46301   0.48342   0.25829   -0.055352           
         C         C         0.41177   0.56036   0.25507   0.111549  
         C         C         0.37375   0.55702   0.25526   -0.002677           
         C         C         0.33794   0.52045   0.25287   -0.110422           
         C         C         0.30186   0.51944   0.25325   -0.134443           
         C         C         0.29955   0.55486   0.25559   0.070015  
         C         C         0.33538   0.59087   0.25734   -0.171129           
         C         C         0.37283   0.59354   0.25739   0.030179  
         O         O         0.41917   0.52955   0.25996   -0.331918           
         H         H         0.43075   0.46763   0.25711   0.106722  
         H         H         0.33941   0.49312   0.25047   0.117054  
         H         H         0.27503   0.49072   0.25041   0.104253  
         H         H         0.33471   0.61838   0.25739   0.099735  
         C         C         0.51481   0.97882   0.26365   -0.059932           
         C         C         0.43895   0.84937   0.26071   0.112326  
         C         C         0.44252   0.81479   0.25847   -0.006465           
         C         C         0.47832   0.81533   0.26504   -0.122659           
         C         C         0.47932   0.78028   0.26427   -0.131487           
         C         C         0.44499   0.74277   0.25401   0.059851  
         C         C         0.41006   0.74276   0.24494   -0.165831           
         C         C         0.40695   0.77752   0.24962   0.039649  
         O         O         0.46917   0.88847   0.26640   -0.331131           
         H         H         0.53116   0.96309   0.26553   0.105643  
         H         H         0.50466   0.84379   0.27486   0.118694  
         H         H         0.50635   0.78187   0.27798   0.104258  
         H         H         0.38400   0.71457   0.23248   0.100404  
         C         C         0.98003   0.45228   0.24888   -0.069720           
         C         C         0.85030   0.40245   0.24470   0.108875  
         C         C         0.81445   0.36542   0.24451   0.001134  
         C         C         0.81331   0.32835   0.24056   -0.113319           
         C         C         0.77729   0.29327   0.23987   -0.136217           
         C         C         0.74016   0.29322   0.24470   0.059151  
         C         C         0.74118   0.33013   0.25329   -0.176096           
         C         C         0.77732   0.36670   0.25184   0.030754  
         O         O         0.88918   0.40883   0.24132   -0.331941           
         H         H         0.96363   0.41994   0.25038   0.106975  
         H         H         0.84120   0.32794   0.23962   0.118151  
         H         H         0.77780   0.26542   0.23671   0.107974  
         H         H         0.71296   0.33075   0.25858   0.101009  
         C         C         0.54658   0.52419   0.25425   -0.053203           
         C         C         0.59529   0.44425   0.26024   0.112648  
         C         C         0.63209   0.44569   0.26343   -0.000880           
         C         C         0.66784   0.48124   0.27421   -0.120689           
         C         C         0.70305   0.48045   0.27367   -0.123055           
         C         C         0.70458   0.44415   0.26250   0.063503  
         C         C         0.66868   0.40909   0.25351   -0.165542           
         C         C         0.63199   0.40824   0.25410   0.029801  
         O         O         0.58866   0.47613   0.26153   -0.334861           
         H         H         0.57894   0.53997   0.25451   0.103851  
         H         H         0.66707   0.50927   0.28284   0.117863  
         H         H         0.72980   0.50847   0.28324   0.100465  
         H         H         0.66908   0.38095   0.24474   0.101325  
         C         C         0.47217   0.01935   0.26540   -0.056455           
         C         C         0.55485   0.14960   0.24055   0.106815  
         C         C         0.55376   0.18521   0.23769   -0.008962           
         C         C         0.51781   0.18656   0.24049   -0.121273           
         C         C         0.51889   0.22251   0.23892   -0.132956           
         C         C         0.55627   0.25905   0.23230   0.062019  
         C         C         0.59160   0.25721   0.22972   -0.167974           
         C         C         0.59193   0.22149   0.23296   0.042031  
         O         O         0.52198   0.11107   0.24744   -0.330175           
         H         H         0.45579   0.03508   0.26383   0.103120  
         H         H         0.48929   0.15879   0.24253   0.119233  
         H         H         0.49077   0.22231   0.23939   0.102813  
         H         H         0.62051   0.28473   0.22416   0.100889  
         C         C         0.53583   0.02015   0.25774   -0.060209           
         C         C         0.58996   0.14887   0.23895   0.111791  
         C         C         0.62819   0.18357   0.23651   -0.005926           
         C         C         0.66388   0.18315   0.23992   -0.123977           
         C         C         0.69978   0.21823   0.24137   -0.134019           
         C         C         0.70212   0.25566   0.23854   0.063214  
         C         C         0.66686   0.25558   0.23182   -0.165763           
         C         C         0.62930   0.22072   0.23252   0.038452  
         O         O         0.58141   0.10994   0.24357   -0.329218           
         H         H         0.56861   0.03657   0.25452   0.105707  
         H         H         0.66223   0.15473   0.24526   0.118538  
         H         H         0.72584   0.21669   0.25027   0.106253  
         H         H         0.66833   0.28383   0.22627   0.099747  
         C         C         0.48349   0.46230   0.25577   -0.070256           
         C         C         0.56027   0.40937   0.25405   0.115001  
         C         C         0.55816   0.37158   0.24503   -0.004704           
         C         C         0.52274   0.33555   0.23446   -0.108292           
         C         C         0.52265   0.29958   0.22643   -0.136071           
         C         C         0.55776   0.29766   0.22977   0.060758  
         C         C         0.59314   0.33364   0.23653   -0.178690           
         C         C         0.59499   0.37106   0.24372   0.035004  
         O         O         0.52928   0.41726   0.25403   -0.333816           
         H         H         0.46703   0.42993   0.25413   0.107036  
         H         H         0.49583   0.33669   0.23027   0.117775  
         H         H         0.49517   0.27252   0.21552   0.109306  
         H         H         0.61994   0.33279   0.24222   0.101831  
         C         C         0.98008   0.51463   0.25037   -0.053450           
         C         C         0.85052   0.43815   0.25121   0.112485  
         C         C         0.81555   0.44137   0.25326   -0.004824           
         C         C         0.81583   0.47786   0.25494   -0.113520           
         C         C         0.78035   0.47875   0.25841   -0.133591           
         C         C         0.74262   0.44328   0.25955   0.072177  
         C         C         0.74286   0.40734   0.25745   -0.171271           
         C         C         0.77806   0.40480   0.25435   0.031101  
         O         O         0.88906   0.46898   0.25533   -0.331568           
         H         H         0.96404   0.53076   0.24916   0.106275  
         H         H         0.84448   0.50526   0.25449   0.120095  
         H         H         0.78188   0.50742   0.25893   0.104551  
         H         H         0.71445   0.37982   0.25819   0.099550  
         C         C         0.45112   0.97799   0.27134   -0.060944           
         C         C         0.40343   0.84832   0.25836   0.108186  
         C         C         0.36723   0.81257   0.25117   -0.008340           
         C         C         0.33041   0.81104   0.24934   -0.121482           
         C         C         0.29591   0.77503   0.24390   -0.133872           
         C         C         0.29646   0.73855   0.23920   0.062742  
         C         C         0.33315   0.74054   0.24140   -0.168303           
         C         C         0.36903   0.77640   0.24691   0.042332  
         O         O         0.40898   0.88670   0.26437   -0.332503           
         H         H         0.41829   0.96156   0.27505   0.103434  
         H         H         0.32991   0.83881   0.25091   0.118226  
         H         H         0.26851   0.77516   0.23990   0.107117  
         H         H         0.33404   0.71304   0.23967   0.100549  
         C         C         0.52607   0.54536   0.25698   -0.071229           
         C         C         0.44734   0.59607   0.24913   0.108040  
         C         C         0.44858   0.63306   0.24907   -0.000320           
         C         C         0.48478   0.67017   0.24339   -0.113740           
         C         C         0.48362   0.70516   0.24480   -0.134600           
         C         C         0.44595   0.70522   0.25490   0.060255  
         C         C         0.41000   0.66824   0.26311   -0.177084           
         C         C         0.40998   0.63172   0.25768   0.034618  
         O         O         0.47961   0.58967   0.24747   -0.333709           
         H         H         0.54246   0.57772   0.25879   0.106863  
         H         H         0.51361   0.67061   0.23814   0.117411  
         H         H         0.51239   0.73305   0.23822   0.108108  
         H         H         0.38070   0.66759   0.27245   0.102457  
         C         C         0.02179   0.47296   0.24652   -0.054939           
         C         C         0.15097   0.55306   0.25530   0.109691  
         C         C         0.18661   0.55184   0.25689   -0.000144           
         C         C         0.18748   0.51633   0.26152   -0.120121           
         C         C         0.22373   0.51729   0.25956   -0.125505           
         C         C         0.26080   0.55374   0.25597   0.065852  
         C         C         0.25927   0.58875   0.25321   -0.165091           
         C         C         0.22353   0.58940   0.25219   0.030362  
         O         O         0.11269   0.52102   0.25370   -0.334412           
         H         H         0.03794   0.45686   0.24700   0.102819  
         H         H         0.15910   0.48821   0.26562   0.117407  
         H         H         0.22315   0.48927   0.26272   0.100803  
         H         H         0.28707   0.61697   0.25191   0.100588  
         C         C         0.04323   0.51482   0.24718   -0.210603           
         B         B         0.08848   0.53798   0.25073   0.573540  
         C         C         0.48396   0.52536   0.25877   -0.214285           
         B         B         0.46146   0.54808   0.25555   0.571425  
         C         C         0.47221   0.95698   0.26929   -0.224481           
         B         B         0.45019   0.91140   0.26813   0.579437  
         C         C         0.95842   0.47272   0.25094   -0.214928           
         B         B         0.91288   0.45041   0.24936   0.568254  
         C         C         0.52560   0.48233   0.25438   -0.209722           
         B         B         0.54756   0.45901   0.25682   0.572068  
         C         C         0.51501   0.04116   0.25768   -0.225941           
         B         B         0.53894   0.08671   0.24946   0.576191  
         C         C         0.02033   0.54434   0.74901   -0.069447           
         C         C         0.14995   0.59512   0.75225   0.106898  
         C         C         0.18617   0.63239   0.74631   0.000297  
         C         C         0.18814   0.66913   0.73817   -0.113864           
         C         C         0.22462   0.70445   0.73255   -0.135853           
         C         C         0.26115   0.70510   0.73553   0.059304  
         C         C         0.25926   0.66847   0.73927   -0.175588           
         C         C         0.22290   0.63170   0.74496   0.031626  
         O         O         0.11123   0.58821   0.75282   -0.332187           
         H         H         0.03677   0.57668   0.74692   0.106528  
         H         H         0.16057   0.66900   0.73409   0.117419  
         H         H         0.22511   0.73199   0.72323   0.108248  
         H         H         0.28665   0.66825   0.74282   0.100100  
         C         C         0.45488   0.47851   0.76070   -0.054362           
         C         C         0.40544   0.55761   0.75330   0.109038  
         C         C         0.36800   0.55573   0.75398   0.003365  
         C         C         0.33157   0.51986   0.75124   -0.116994           
         C         C         0.29587   0.52015   0.75394   -0.126353           
         C         C         0.29473   0.55624   0.75763   0.064306  
         C         C         0.33120   0.59161   0.75966   -0.162075           
         C         C         0.36825   0.59298   0.75819   0.025019  
         O         O         0.41178   0.52594   0.75706   -0.331706           
         H         H         0.42240   0.46250   0.76143   0.103803  
         H         H         0.33216   0.49201   0.74790   0.118749  
         H         H         0.26839   0.49191   0.75217   0.100562  
         H         H         0.33125   0.61962   0.76193   0.099794  
         C         C         0.52106   0.98085   0.76150   -0.057052           
         C         C         0.44281   0.85071   0.76223   0.107214  
         C         C         0.44529   0.81542   0.75852   -0.008011           
         C         C         0.48048   0.81471   0.76479   -0.123621           
         C         C         0.48036   0.77909   0.76381   -0.132805           
         C         C         0.44534   0.74218   0.75375   0.062034  
         C         C         0.41117   0.74336   0.74368   -0.169089           
         C         C         0.40915   0.77876   0.74914   0.041993  
         O         O         0.47379   0.88951   0.76759   -0.330795           
         H         H         0.53771   0.96523   0.76181   0.103822  
         H         H         0.50709   0.84277   0.77562   0.118620  
         H         H         0.50685   0.77973   0.77801   0.104482  
         H         H         0.38477   0.71563   0.73022   0.099737  
         C         C         0.97885   0.46130   0.74993   -0.069866           
         C         C         0.84929   0.40940   0.74888   0.113355  
         C         C         0.81414   0.37174   0.74926   0.000684  
         C         C         0.81405   0.33541   0.74913   -0.110328           
         C         C         0.77880   0.29962   0.74767   -0.133338           
         C         C         0.74183   0.29821   0.74554   0.062029  
         C         C         0.74193   0.33447   0.74953   -0.176760           
         C         C         0.77685   0.37167   0.75207   0.029721  
         O         O         0.88826   0.41694   0.74754   -0.332744           
         H         H         0.96266   0.42894   0.75044   0.107587  
         H         H         0.84196   0.33609   0.75274   0.119120  
         H         H         0.77973   0.27231   0.74972   0.105408  
         H         H         0.71415   0.33413   0.74698   0.100792  
         C         C         0.53876   0.51987   0.75418   -0.055084           
         C         C         0.58931   0.44214   0.76092   0.111666  
         C         C         0.62661   0.44474   0.76412   -0.003891           
         C         C         0.66175   0.48090   0.77507   -0.115522           
         C         C         0.69742   0.48118   0.77509   -0.136097           
         C         C         0.70013   0.44546   0.76373   0.071651  
         C         C         0.66483   0.40985   0.75486   -0.169276           
         C         C         0.62764   0.40789   0.75541   0.029653  
         O         O         0.58185   0.47341   0.76155   -0.333705           
         H         H         0.57114   0.53584   0.75435   0.106295  
         H         H         0.66011   0.50852   0.78399   0.120049  
         H         H         0.72361   0.50954   0.78589   0.105153  
         H         H         0.66606   0.38211   0.74601   0.100634  
         C         C         0.47789   0.02113   0.76561   -0.060409           
         C         C         0.55825   0.15106   0.74260   0.105379  
         C         C         0.55599   0.18603   0.73961   -0.005656           
         C         C         0.51974   0.18623   0.73982   -0.121788           
         C         C         0.51982   0.22161   0.73727   -0.133584           
         C         C         0.55624   0.25876   0.73342   0.061199  
         C         C         0.59195   0.25808   0.73333   -0.166096           
         C         C         0.59341   0.22292   0.73653   0.039000  
         O         O         0.52611   0.11224   0.74882   -0.327887           
         H         H         0.46123   0.03670   0.76488   0.105026  
         H         H         0.49180   0.15801   0.74058   0.119140  
         H         H         0.49165   0.22051   0.73434   0.107781  
         H         H         0.62024   0.28610   0.72944   0.100143  
         C         C         0.54191   0.02220   0.75584   -0.062031           
         C         C         0.59396   0.15136   0.74036   0.111123  
         C         C         0.63188   0.18667   0.73650   -0.007789           
         C         C         0.66886   0.18740   0.73411   -0.122887           
         C         C         0.70444   0.22306   0.73372   -0.134145           
         C         C         0.70473   0.25992   0.73777   0.062390  
         C         C         0.66826   0.25867   0.73632   -0.166964           
         C         C         0.63144   0.22323   0.73537   0.041716  
         O         O         0.58647   0.11272   0.74386   -0.330152           
         H         H         0.57479   0.03876   0.75172   0.104031  
         H         H         0.66846   0.15936   0.73578   0.118667  
         H         H         0.73180   0.22238   0.73588   0.107156  
         H         H         0.66809   0.28649   0.73717   0.099532  
         C         C         0.47561   0.45768   0.75879   -0.070459           
         C         C         0.55472   0.40671   0.75572   0.109750  
         C         C         0.55386   0.36943   0.74646   -0.001360           
         C         C         0.51930   0.33270   0.73447   -0.113940           
         C         C         0.52069   0.29738   0.72542   -0.129436           
         C         C         0.55624   0.29668   0.73079   0.058916  
         C         C         0.59061   0.33331   0.73953   -0.175158           
         C         C         0.59124   0.37012   0.74568   0.032011  
         O         O         0.52292   0.41367   0.75668   -0.333148           
         H         H         0.45921   0.42533   0.75929   0.106789  
         H         H         0.49200   0.33280   0.72904   0.117974  
         H         H         0.49411   0.26981   0.71152   0.102938  
         H         H         0.61773   0.33358   0.74722   0.100290  
         C         C         0.97850   0.52350   0.75216   -0.056574           
         C         C         0.84870   0.44450   0.75165   0.108635  
         C         C         0.81303   0.44639   0.75331   -0.002392           
         C         C         0.81207   0.48225   0.75503   -0.115717           
         C         C         0.77591   0.48193   0.75922   -0.127600           
         C         C         0.73880   0.44581   0.76055   0.063511  
         C         C         0.74023   0.41045   0.75847   -0.164106           
         C         C         0.77622   0.40914   0.75434   0.030584  
         O         O         0.88703   0.47615   0.75436   -0.332939           
         H         H         0.96225   0.53949   0.75169   0.103864  
         H         H         0.84030   0.51013   0.75432   0.117645  
         H         H         0.77639   0.51017   0.76061   0.100774  
         H         H         0.71205   0.38246   0.76103   0.101921  
         C         C         0.45706   0.97977   0.77102   -0.058764           
         C         C         0.40776   0.85072   0.76053   0.113293  
         C         C         0.37101   0.81564   0.75334   -0.009453           
         C         C         0.33486   0.81550   0.75168   -0.123108           
         C         C         0.29979   0.78011   0.74576   -0.131884           
         C         C         0.29902   0.74296   0.74053   0.062554  
         C         C         0.33522   0.74363   0.74190   -0.168861           
         C         C         0.37169   0.77883   0.74762   0.039317  
         O         O         0.41434   0.88940   0.76611   -0.331803           
         H         H         0.42428   0.96323   0.77431   0.105486  
         H         H         0.33533   0.84380   0.75383   0.119029  
         H         H         0.27289   0.78120   0.74180   0.104300  
         H         H         0.33539   0.71567   0.73860   0.101935  
         C         C         0.51814   0.54067   0.75524   -0.072834           
         C         C         0.44140   0.59266   0.74969   0.115813  
         C         C         0.44400   0.63033   0.75095   -0.003045           
         C         C         0.48088   0.66665   0.74706   -0.107407           
         C         C         0.48133   0.70243   0.74804   -0.137062           
         C         C         0.44463   0.70392   0.75616   0.063153  
         C         C         0.40777   0.66768   0.76480   -0.176881           
         C         C         0.40616   0.63043   0.75919   0.031542  
         O         O         0.47275   0.58509   0.74853   -0.333578           
         H         H         0.53467   0.57302   0.75409   0.107176  
         H         H         0.50892   0.66593   0.74364   0.117504  
         H         H         0.51055   0.72973   0.74301   0.109014  
         H         H         0.37898   0.66818   0.77471   0.101049  
         C         C         0.02053   0.48210   0.74759   -0.052291           
         C         C         0.14934   0.55966   0.75350   0.113535  
         C         C         0.18410   0.55707   0.75604   -0.004327           
         C         C         0.18369   0.52093   0.76093   -0.112471           
         C         C         0.21903   0.52067   0.76123   -0.132989           
         C         C         0.25667   0.55649   0.75822   0.070994  
         C         C         0.25649   0.59210   0.75478   -0.172207           
         C         C         0.22158   0.59395   0.75232   0.030913  
         O         O         0.11070   0.52844   0.75168   -0.331229           
         H         H         0.03681   0.46612   0.74803   0.105470  
         H         H         0.15501   0.49330   0.76353   0.116460  
         H         H         0.21753   0.49225   0.76493   0.105294  
         H         H         0.28466   0.61986   0.75408   0.101107  
         C         C         0.04198   0.52399   0.74742   -0.213489           
         B         B         0.08731   0.54657   0.75048   0.568865  
         C         C         0.47586   0.52037   0.75818   -0.207578           
         B         B         0.45375   0.54337   0.75452   0.568878  
         C         C         0.47829   0.95889   0.76869   -0.226278           
         B         B         0.45571   0.91328   0.76916   0.579816  
         C         C         0.95705   0.48163   0.75250   -0.211050           
         B         B         0.91146   0.45867   0.75165   0.574758  
         C         C         0.51787   0.47799   0.75581   -0.212325           
         B         B         0.54047   0.45533   0.75838   0.572373  
         C         C         0.52075   0.04310   0.75755   -0.223074           
         B         B         0.54402   0.08866   0.75008   0.576421 

