
##########################################################################
#               Crystallographic Information Format file
#               Produced by PyCifRW module
#
#  This is a CIF file.  CIF has been adopted by the International
#  Union of Crystallography as the standard for data archiving and
#  transmission.
#
#  For information on this file format, follow the CIF links at
#  http://www.iucr.org
##########################################################################

data_image0

_cell_length_a                          46.1873
_cell_length_b                          46.2466
_cell_length_c                          8.07252
_cell_angle_alpha                       103.801
_cell_angle_beta                        107.996
_cell_angle_gamma                       120.009
_symmetry_space_group_name_H-M          'P 1'
_space_group_name_Hall                  'P 1'
loop_
  _atom_site_type_symbol
  _atom_site_label
  _atom_site_fract_x
  _atom_site_fract_y
  _atom_site_fract_z
  _atom_site_charge
         C         C         0.01954   0.56282   0.26743   -0.138320           
         C         C         0.03772   0.54522   0.26307   0.066891  
         C         C         0.07264   0.56201   0.26134   -0.095407           
         C         C         0.17971   0.60347   0.24536   0.111331  
         C         C         0.20931   0.63500   0.24542   -0.001614           
         C         C         0.20964   0.66569   0.24658   -0.113924           
         C         C         0.23968   0.69587   0.24949   -0.129472           
         C         C         0.27073   0.69677   0.24745   0.070990  
         C         C         0.26984   0.66597   0.24448   -0.171336           
         C         C         0.24035   0.63494   0.24572   0.028400  
         O         O         0.14774   0.59788   0.25074   -0.332967           
         H         H         0.03349   0.59007   0.26850   0.108355  
         H         H         0.08628   0.58922   0.26156   0.109265  
         H         H         0.18589   0.66519   0.24722   0.116608  
         H         H         0.23920   0.71926   0.25323   0.102423  
         H         H         0.29282   0.66561   0.23897   0.100285  
         C         C         0.43878   0.45508   0.24681   -0.134617           
         C         C         0.45642   0.49109   0.24871   0.065938  
         C         C         0.43974   0.50947   0.24980   -0.108968           
         C         C         0.39784   0.57608   0.25871   0.108356  
         C         C         0.36629   0.57402   0.25933   -0.006584           
         C         C         0.33609   0.54407   0.26389   -0.123800           
         C         C         0.30612   0.54392   0.26398   -0.131568           
         C         C         0.30437   0.57342   0.25678   0.064753  
         C         C         0.33442   0.60279   0.25108   -0.169398           
         C         C         0.36595   0.60467   0.25489   0.040101  
         O         O         0.40392   0.54958   0.25762   -0.330949           
         H         H         0.41177   0.44199   0.24858   0.112461  
         H         H         0.41258   0.49615   0.25045   0.109851  
         H         H         0.33702   0.52126   0.26954   0.118222  
         H         H         0.28402   0.52090   0.27327   0.102674  
         H         H         0.33348   0.62538   0.24281   0.101281  
         C         C         0.54289   0.98057   0.22912   -0.135879           
         C         C         0.50696   0.96200   0.22801   0.070343  
         C         C         0.48819   0.92647   0.22197   -0.114258           
         C         C         0.42492   0.82005   0.24430   0.112782  
         C         C         0.42733   0.79089   0.24874   -0.001485           
         C         C         0.45773   0.79057   0.24902   -0.114831           
         C         C         0.45796   0.76085   0.24991   -0.132520           
         C         C         0.42779   0.72962   0.24975   0.059730  
         C         C         0.39762   0.73010   0.24740   -0.172769           
         C         C         0.39616   0.75979   0.24763   0.031971  
         O         O         0.45099   0.85233   0.24117   -0.334491           
         H         H         0.55533   0.96593   0.22034   0.110071  
         H         H         0.50130   0.91244   0.21715   0.109070  
         H         H         0.48070   0.81396   0.24555   0.118622  
         H         H         0.48172   0.76159   0.24802   0.104862  
         H         H         0.37418   0.70656   0.24717   0.099960  
         C         C         0.98325   0.43747   0.24733   -0.139331           
         C         C         0.96509   0.45508   0.25108   0.068179  
         C         C         0.93002   0.43814   0.25117   -0.099801           
         C         C         0.82286   0.39651   0.26653   0.108779  
         C         C         0.79328   0.36501   0.26675   -0.003894           
         C         C         0.79328   0.33467   0.27023   -0.112161           
         C         C         0.76292   0.30430   0.26470   -0.130184           
         C         C         0.73107   0.30272   0.25783   0.067923  
         C         C         0.73166   0.33319   0.25642   -0.169842           
         C         C         0.76170   0.36462   0.26032   0.032823  
         O         O         0.85525   0.40247   0.26519   -0.333623           
         H         H         0.96933   0.41027   0.24690   0.107973  
         H         H         0.91617   0.41084   0.24974   0.110200  
         H         H         0.81747   0.33549   0.27493   0.115248  
         H         H         0.76385   0.28133   0.26561   0.099997  
         H         H         0.70767   0.33267   0.25116   0.100338  
         C         C         0.56370   0.54497   0.25668   -0.134783           
         C         C         0.54618   0.50908   0.25633   0.067372  
         C         C         0.56293   0.49079   0.25619   -0.106722           
         C         C         0.60462   0.42393   0.24510   0.109917  
         C         C         0.63600   0.42580   0.24364   -0.006754           
         C         C         0.66651   0.45593   0.24161   -0.121922           
         C         C         0.69636   0.45589   0.24122   -0.134618           
         C         C         0.69727   0.42570   0.24213   0.063390  
         C         C         0.66686   0.39611   0.24499   -0.168603           
         C         C         0.63584   0.39480   0.24521   0.040787  
         O         O         0.59892   0.45074   0.24882   -0.331834           
         H         H         0.59060   0.55798   0.25363   0.111585  
         H         H         0.59009   0.50432   0.25575   0.108812  
         H         H         0.66604   0.47910   0.23887   0.118348  
         H         H         0.71901   0.47937   0.23689   0.104443  
         H         H         0.66683   0.37272   0.24627   0.100625  
         C         C         0.45629   0.01742   0.25701   -0.133523           
         C         C         0.49208   0.03591   0.25676   0.071243  
         C         C         0.51088   0.07147   0.26310   -0.111232           
         C         C         0.57539   0.17886   0.24912   0.113795  
         C         C         0.57350   0.20847   0.24891   -0.000706           
         C         C         0.54344   0.20915   0.25200   -0.114930           
         C         C         0.54365   0.23921   0.25408   -0.132699           
         C         C         0.57370   0.27016   0.25216   0.060107  
         C         C         0.60362   0.26941   0.25206   -0.174733           
         C         C         0.60485   0.23955   0.25052   0.031703  
         O         O         0.54912   0.14656   0.25150   -0.334202           
         H         H         0.44397   0.03217   0.26722   0.109781  
         H         H         0.49793   0.08566   0.26875   0.108628  
         H         H         0.52038   0.18583   0.25569   0.117860  
         H         H         0.52043   0.23911   0.25993   0.105173  
         H         H         0.62699   0.29279   0.25094   0.101863  
         C         C         0.56124   0.01573   0.24092   -0.132546           
         C         C         0.54494   0.03516   0.24990   0.066080  
         C         C         0.56275   0.07091   0.25761   -0.101519           
         C         C         0.60532   0.17910   0.25185   0.106018  
         C         C         0.63672   0.20864   0.25031   0.000252  
         C         C         0.66745   0.20908   0.25017   -0.118960           
         C         C         0.69757   0.23914   0.25262   -0.127054           
         C         C         0.69855   0.27029   0.25310   0.068916  
         C         C         0.66757   0.26923   0.24974   -0.169251           
         C         C         0.63644   0.23950   0.24947   0.031550  
         O         O         0.59990   0.14721   0.25868   -0.332667           
         H         H         0.58832   0.02939   0.23957   0.106390  
         H         H         0.58980   0.08443   0.25601   0.107779  
         H         H         0.66704   0.18537   0.24954   0.116505  
         H         H         0.72075   0.23847   0.25312   0.100197  
         H         H         0.66750   0.29253   0.24717   0.100893  
         C         C         0.45569   0.43786   0.24753   -0.134459           
         C         C         0.49177   0.45512   0.24981   0.068119  
         C         C         0.50974   0.43802   0.25072   -0.105515           
         C         C         0.57493   0.39432   0.24494   0.107679  
         C         C         0.57285   0.36276   0.24416   -0.005000           
         C         C         0.54238   0.33200   0.24302   -0.120346           
         C         C         0.54249   0.30225   0.24433   -0.131145           
         C         C         0.57314   0.30173   0.24773   0.061919  
         C         C         0.60289   0.33227   0.24669   -0.169410           
         C         C         0.60410   0.36313   0.24490   0.038437  
         O         O         0.54877   0.40071   0.24825   -0.331810           
         H         H         0.44230   0.41089   0.24974   0.111724  
         H         H         0.49599   0.41089   0.25148   0.107151  
         H         H         0.51896   0.33228   0.24283   0.118077  
         H         H         0.51882   0.27933   0.24625   0.103031  
         H         H         0.62638   0.33230   0.24718   0.100584  
         C         C         0.98525   0.54569   0.26643   -0.135522           
         C         C         0.96616   0.50950   0.26144   0.070619  
         C         C         0.93106   0.49141   0.26096   -0.108220           
         C         C         0.82237   0.42572   0.26227   0.112419  
         C         C         0.79198   0.42688   0.25455   -0.001603           
         C         C         0.79034   0.45599   0.24192   -0.112917           
         C         C         0.75955   0.45513   0.23303   -0.131865           
         C         C         0.72918   0.42560   0.24059   0.060936  
         C         C         0.73096   0.39670   0.25037   -0.177177           
         C         C         0.76111   0.39572   0.25454   0.032108  
         O         O         0.85475   0.45206   0.26080   -0.335042           
         H         H         0.97170   0.55931   0.26879   0.108810  
         H         H         0.91776   0.50527   0.26445   0.111683  
         H         H         0.81336   0.47862   0.23477   0.117329  
         H         H         0.75869   0.47739   0.21726   0.104242  
         H         H         0.70839   0.37414   0.25925   0.101895  
         C         C         0.43796   0.98228   0.24545   -0.138747           
         C         C         0.45411   0.96274   0.23509   0.068831  
         C         C         0.43635   0.92704   0.22782   -0.100484           
         C         C         0.39448   0.81926   0.23732   0.107814  
         C         C         0.36342   0.78987   0.24113   -0.001852           
         C         C         0.33244   0.78911   0.23944   -0.118273           
         C         C         0.30280   0.75935   0.24098   -0.128489           
         C         C         0.30264   0.72887   0.24715   0.068632  
         C         C         0.33384   0.73028   0.25171   -0.168722           
         C         C         0.36439   0.75960   0.24710   0.029861  
         O         O         0.39928   0.85064   0.22626   -0.331139           
         H         H         0.41104   0.96884   0.24846   0.108430  
         H         H         0.40944   0.91365   0.23077   0.108521  
         H         H         0.33231   0.81237   0.23530   0.118223  
         H         H         0.27924   0.75961   0.23746   0.100372  
         H         H         0.33480   0.70772   0.26040   0.100927  
         C         C         0.54674   0.56214   0.25582   -0.136196           
         C         C         0.51081   0.54500   0.25507   0.070567  
         C         C         0.49301   0.56226   0.25573   -0.107253           
         C         C         0.42744   0.60577   0.25864   0.107611  
         C         C         0.42915   0.63714   0.25795   -0.007030           
         C         C         0.45955   0.66814   0.25994   -0.122823           
         C         C         0.45920   0.69778   0.25858   -0.132459           
         C         C         0.42838   0.69805   0.25422   0.061597  
         C         C         0.39862   0.66728   0.25402   -0.170474           
         C         C         0.39762   0.63647   0.25546   0.042119  
         O         O         0.45396   0.59969   0.25808   -0.330969           
         H         H         0.55987   0.58895   0.25188   0.112104  
         H         H         0.50685   0.58948   0.25582   0.108766  
         H         H         0.48315   0.66817   0.26085   0.118305  
         H         H         0.48288   0.72087   0.25764   0.103813  
         H         H         0.37506   0.66710   0.25381   0.100848  
         C         C         0.01764   0.45469   0.24926   -0.134952           
         C         C         0.03672   0.49084   0.25373   0.066288  
         C         C         0.07171   0.50881   0.25315   -0.109733           
         C         C         0.17946   0.57357   0.24184   0.108807  
         C         C         0.20936   0.57198   0.24376   0.001881  
         C         C         0.21025   0.54203   0.24728   -0.113231           
         C         C         0.24075   0.54264   0.25292   -0.133249           
         C         C         0.27211   0.57316   0.25554   0.057622  
         C         C         0.27108   0.60283   0.25420   -0.174749           
         C         C         0.24066   0.60354   0.24787   0.031629  
         O         O         0.14694   0.54710   0.24209   -0.333705           
         H         H         0.03128   0.44117   0.24809   0.107353  
         H         H         0.08495   0.49487   0.25021   0.112577  
         H         H         0.18673   0.51875   0.24863   0.116399  
         H         H         0.24063   0.51929   0.25734   0.104971  
         H         H         0.29475   0.62648   0.25629   0.101462  
         C         C         0.01930   0.50911   0.25823   0.005007  
         C         C         0.08990   0.54420   0.25607   -0.223002           
         B         B         0.12760   0.56276   0.24959   0.577450  
         C         C         0.49248   0.50902   0.25207   0.003097  
         C         C         0.45765   0.54495   0.25361   -0.228713           
         B         B         0.43885   0.56449   0.25634   0.582092  
         C         C         0.49002   0.98072   0.23661   0.002656  
         C         C         0.45316   0.90881   0.22313   -0.219970           
         B         B         0.43457   0.87105   0.22885   0.577636  
         C         C         0.98364   0.49129   0.25696   0.003810  
         C         C         0.91276   0.45591   0.25659   -0.222841           
         B         B         0.87492   0.43717   0.26172   0.580475  
         C         C         0.51008   0.49108   0.25254   0.003720  
         C         C         0.54516   0.45539   0.25322   -0.232902           
         B         B         0.56405   0.43596   0.25076   0.583679  
         C         C         0.50896   0.01713   0.24755   0.006641  
         C         C         0.54592   0.08914   0.26209   -0.221783           
         B         B         0.56479   0.12713   0.25835   0.581111  
         C         C         0.01667   0.56359   0.76544   -0.136255           
         C         C         0.03554   0.54672   0.76184   0.069450  
         C         C         0.07052   0.56427   0.76065   -0.101997           
         C         C         0.17851   0.60645   0.74522   0.109655  
         C         C         0.20839   0.63782   0.74537   0.000917  
         C         C         0.20930   0.66879   0.74599   -0.115752           
         C         C         0.23959   0.69864   0.74821   -0.132190           
         C         C         0.27048   0.69907   0.74747   0.069174  
         C         C         0.26909   0.66810   0.74593   -0.165739           
         C         C         0.23918   0.63724   0.74596   0.029130  
         O         O         0.14665   0.60115   0.75113   -0.331887           
         H         H         0.03005   0.59078   0.76575   0.107067  
         H         H         0.08362   0.59147   0.76078   0.109562  
         H         H         0.18581   0.66879   0.74685   0.115849  
         H         H         0.23943   0.72213   0.75038   0.102090  
         H         H         0.29211   0.66754   0.74315   0.100277  
         C         C         0.43650   0.45439   0.74720   -0.138517           
         C         C         0.45368   0.49036   0.74876   0.068588  
         C         C         0.43657   0.50829   0.75012   -0.107231           
         C         C         0.39489   0.57568   0.76307   0.105209  
         C         C         0.36348   0.57407   0.76245   -0.004450           
         C         C         0.33269   0.54405   0.76344   -0.124887           
         C         C         0.30266   0.54413   0.76042   -0.134136           
         C         C         0.30187   0.57431   0.75727   0.063808  
         C         C         0.33251   0.60373   0.75502   -0.166936           
         C         C         0.36369   0.60498   0.75791   0.039621  
         O         O         0.40059   0.54891   0.76253   -0.331828           
         H         H         0.40961   0.44110   0.75045   0.112710  
         H         H         0.40932   0.49439   0.74983   0.108854  
         H         H         0.33316   0.52099   0.76849   0.118597  
         H         H         0.27984   0.52075   0.76435   0.104651  
         H         H         0.33236   0.62688   0.75025   0.099609  
         C         C         0.54364   0.98277   0.73196   -0.133660           
         C         C         0.50751   0.96339   0.72848   0.071291  
         C         C         0.48932   0.92781   0.72214   -0.111197           
         C         C         0.42567   0.82076   0.74511   0.108714  
         C         C         0.42761   0.79133   0.74924   -0.001252           
         C         C         0.45788   0.79063   0.75047   -0.111751           
         C         C         0.45759   0.76062   0.75053   -0.134858           
         C         C         0.42688   0.72940   0.74758   0.057685  
         C         C         0.39685   0.73025   0.74426   -0.173102           
         C         C         0.39604   0.76037   0.74706   0.032376  
         O         O         0.45191   0.85290   0.74129   -0.333420           
         H         H         0.55678   0.96879   0.72451   0.110047  
         H         H         0.50302   0.91434   0.71881   0.109148  
         H         H         0.48131   0.81407   0.74947   0.117580  
         H         H         0.48139   0.76116   0.75098   0.105335  
         H         H         0.37289   0.70659   0.74053   0.100900  
         C         C         0.98320   0.43915   0.74751   -0.136610           
         C         C         0.96431   0.45601   0.75129   0.067308  
         C         C         0.92933   0.43852   0.75269   -0.099846           
         C         C         0.82097   0.39593   0.76395   0.110704  
         C         C         0.79128   0.36456   0.76465   0.002516  
         C         C         0.79144   0.33452   0.77284   -0.117325           
         C         C         0.76118   0.30452   0.76999   -0.128623           
         C         C         0.72905   0.30278   0.75888   0.067118  
         C         C         0.72955   0.33301   0.75369   -0.167558           
         C         C         0.75966   0.36426   0.75683   0.030259  
         O         O         0.85344   0.40187   0.76366   -0.334054           
         H         H         0.96986   0.41198   0.74738   0.107406  
         H         H         0.91620   0.41138   0.75327   0.109259  
         H         H         0.81589   0.33551   0.78099   0.117835  
         H         H         0.76244   0.28203   0.77751   0.100733  
         H         H         0.70544   0.33243   0.74661   0.101146  
         C         C         0.56103   0.54554   0.75636   -0.135299           
         C         C         0.54385   0.50960   0.75489   0.068227  
         C         C         0.56116   0.49186   0.75504   -0.102560           
         C         C         0.60378   0.42550   0.74685   0.105296  
         C         C         0.63517   0.42718   0.74596   -0.006747           
         C         C         0.66614   0.45740   0.74681   -0.122287           
         C         C         0.69592   0.45714   0.74670   -0.132118           
         C         C         0.69624   0.42649   0.74399   0.060667  
         C         C         0.66549   0.39687   0.74450   -0.168207           
         C         C         0.63464   0.39588   0.74558   0.039157  
         O         O         0.59805   0.45232   0.75025   -0.330696           
         H         H         0.58795   0.55881   0.75338   0.111357  
         H         H         0.58835   0.50569   0.75476   0.107083  
         H         H         0.66604   0.48085   0.74645   0.118184  
         H         H         0.71908   0.48074   0.74552   0.104337  
         H         H         0.66515   0.37320   0.74281   0.101460  
         C         C         0.45437   0.01653   0.75095   -0.135557           
         C         C         0.49052   0.03590   0.75480   0.067789  
         C         C         0.50878   0.07155   0.76211   -0.112438           
         C         C         0.57303   0.17956   0.74968   0.109633  
         C         C         0.57120   0.20916   0.74837   -0.002040           
         C         C         0.54080   0.20965   0.74701   -0.112544           
         C         C         0.54109   0.23973   0.74844   -0.136538           
         C         C         0.57171   0.27104   0.75127   0.056957  
         C         C         0.60187   0.27041   0.75468   -0.172149           
         C         C         0.60288   0.24040   0.75248   0.033402  
         O         O         0.54663   0.14710   0.75089   -0.334278           
         H         H         0.44136   0.03063   0.75856   0.110151  
         H         H         0.49511   0.08505   0.76559   0.111848  
         H         H         0.51728   0.18604   0.74662   0.118089  
         H         H         0.51737   0.23919   0.74932   0.105064  
         H         H         0.62554   0.29394   0.75597   0.100708  
         C         C         0.56145   0.01799   0.74471   -0.137830           
         C         C         0.54442   0.03671   0.75249   0.070297  
         C         C         0.56168   0.07251   0.76124   -0.101737           
         C         C         0.60300   0.17979   0.75318   0.112698  
         C         C         0.63436   0.20910   0.75097   -0.002067           
         C         C         0.66468   0.20899   0.74829   -0.114824           
         C         C         0.69480   0.23883   0.74978   -0.129199           
         C         C         0.69636   0.27042   0.75370   0.068087  
         C         C         0.66574   0.26981   0.75289   -0.168923           
         C         C         0.63441   0.24018   0.75183   0.030023  
         O         O         0.59755   0.14790   0.75935   -0.332189           
         H         H         0.58876   0.03222   0.74576   0.108742  
         H         H         0.58894   0.08664   0.76167   0.110066  
         H         H         0.66375   0.18490   0.74497   0.116009  
         H         H         0.71741   0.23750   0.74594   0.101839  
         H         H         0.66609   0.29345   0.75351   0.100458  
         C         C         0.45389   0.43765   0.74727   -0.134320           
         C         C         0.48993   0.45532   0.74878   0.068830  
         C         C         0.50841   0.43874   0.74957   -0.106649           
         C         C         0.57393   0.39580   0.74553   0.108451  
         C         C         0.57160   0.36407   0.74363   -0.006911           
         C         C         0.54095   0.33331   0.74162   -0.122912           
         C         C         0.54086   0.30345   0.74267   -0.133920           
         C         C         0.57146   0.30276   0.74678   0.061841  
         C         C         0.60136   0.33324   0.74608   -0.167525           
         C         C         0.60275   0.36422   0.74445   0.043102  
         O         O         0.54772   0.40215   0.74811   -0.330460           
         H         H         0.44105   0.41073   0.74996   0.111469  
         H         H         0.49511   0.41158   0.74980   0.108231  
         H         H         0.51753   0.33359   0.74123   0.118355  
         H         H         0.51707   0.28062   0.74443   0.106498  
         H         H         0.62487   0.33321   0.74714   0.100013  
         C         C         0.98232   0.54573   0.76357   -0.139641           
         C         C         0.96395   0.50963   0.75960   0.069362  
         C         C         0.92893   0.49100   0.75957   -0.108008           
         C         C         0.82088   0.42545   0.76203   0.110993  
         C         C         0.79064   0.42686   0.75518   0.001345  
         C         C         0.78953   0.45647   0.74704   -0.110515           
         C         C         0.75894   0.45592   0.73910   -0.135946           
         C         C         0.72794   0.42601   0.74144   0.062996  
         C         C         0.72905   0.39650   0.74574   -0.175124           
         C         C         0.75927   0.39546   0.75129   0.029243  
         O         O         0.85361   0.45195   0.76361   -0.334146           
         H         H         0.96808   0.55865   0.76416   0.108624  
         H         H         0.91512   0.50436   0.76245   0.109575  
         H         H         0.81294   0.47949   0.74392   0.116458  
         H         H         0.75884   0.47884   0.72866   0.105923  
         H         H         0.70589   0.37346   0.74939   0.098756  
         C         C         0.43653   0.98130   0.73802   -0.135024           
         C         C         0.45362   0.96262   0.73055   0.064926  
         C         C         0.43641   0.92690   0.72249   -0.099136           
         C         C         0.39541   0.82032   0.73805   0.113184  
         C         C         0.36414   0.79126   0.74214   -0.004187           
         C         C         0.33336   0.79101   0.73948   -0.112425           
         C         C         0.30338   0.76146   0.74032   -0.133527           
         C         C         0.30274   0.73079   0.74701   0.067827  
         C         C         0.33376   0.73170   0.75251   -0.168959           
         C         C         0.36458   0.76073   0.74787   0.030506  
         O         O         0.40046   0.85170   0.72617   -0.334036           
         H         H         0.40923   0.96701   0.73699   0.108072  
         H         H         0.40919   0.91284   0.72230   0.109007  
         H         H         0.33363   0.81444   0.73495   0.116359  
         H         H         0.28002   0.76213   0.73650   0.102855  
         H         H         0.33442   0.70906   0.76260   0.100955  
         C         C         0.54372   0.56236   0.75686   -0.136782           
         C         C         0.50768   0.54472   0.75531   0.070008  
         C         C         0.48939   0.56148   0.75613   -0.104712           
         C         C         0.42440   0.60482   0.75991   0.111244  
         C         C         0.42645   0.63619   0.75686   -0.008192           
         C         C         0.45666   0.66631   0.75338   -0.119971           
         C         C         0.45687   0.69615   0.75044   -0.133803           
         C         C         0.42683   0.69747   0.75085   0.064780  
         C         C         0.39713   0.66740   0.75480   -0.166517           
         C         C         0.39551   0.63636   0.75698   0.040536  
         O         O         0.45041   0.59819   0.75731   -0.331316           
         H         H         0.55676   0.58934   0.75493   0.112600  
         H         H         0.50290   0.58870   0.75660   0.107953  
         H         H         0.47954   0.66533   0.75033   0.118131  
         H         H         0.48025   0.71838   0.74359   0.104829  
         H         H         0.37414   0.66800   0.75774   0.099587  
         C         C         0.01744   0.45689   0.74820   -0.136193           
         C         C         0.03582   0.49301   0.75220   0.071144  
         C         C         0.07077   0.51161   0.75145   -0.107795           
         C         C         0.17802   0.57646   0.74290   0.111252  
         C         C         0.20780   0.57453   0.74634   -0.000220           
         C         C         0.20849   0.54464   0.75284   -0.111645           
         C         C         0.23883   0.54487   0.75903   -0.132935           
         C         C         0.26995   0.57468   0.75686   0.061598  
         C         C         0.26904   0.60428   0.75217   -0.177201           
         C         C         0.23909   0.60565   0.74839   0.031628  
         O         O         0.14544   0.55024   0.74314   -0.334434           
         H         H         0.03155   0.44385   0.74643   0.108948  
         H         H         0.08455   0.49823   0.74762   0.109280  
         H         H         0.18505   0.52176   0.75660   0.116759  
         H         H         0.23864   0.52171   0.76773   0.103638  
         H         H         0.29228   0.62726   0.74858   0.101833  
         C         C         0.01773   0.51059   0.75688   0.003763  
         C         C         0.08838   0.54709   0.75522   -0.218749           
         B         B         0.12616   0.56599   0.74932   0.578488  
         C         C         0.48973   0.50872   0.75181   0.003699  
         C         C         0.45404   0.54378   0.75422   -0.234130           
         B         B         0.43518   0.56321   0.75794   0.585598  
         C         C         0.48984   0.98142   0.73552   0.006665  
         C         C         0.45407   0.90946   0.72108   -0.224002           
         B         B         0.43571   0.87179   0.72798   0.581127  
         C         C         0.98209   0.49210   0.75575   0.007444  
         C         C         0.91138   0.45564   0.75708   -0.219891           
         B         B         0.87350   0.43674   0.76224   0.577401  
         C         C         0.50778   0.49125   0.75157   0.002992  
         C         C         0.54386   0.45654   0.75254   -0.233531           
         B         B         0.56303   0.43740   0.75080   0.585429  
         C         C         0.50819   0.01789   0.74748   0.002959  
         C         C         0.54406   0.08997   0.76367   -0.220682           
         B         B         0.56247   0.12785   0.75909   0.575969 

