
##########################################################################
#               Crystallographic Information Format file
#               Produced by PyCifRW module
#
#  This is a CIF file.  CIF has been adopted by the International
#  Union of Crystallography as the standard for data archiving and
#  transmission.
#
#  For information on this file format, follow the CIF links at
#  http://www.iucr.org
##########################################################################

data_image0

_cell_length_a                          30.7568
_cell_length_b                          30.592
_cell_length_c                          14.6906
_cell_angle_alpha                       89.7626
_cell_angle_beta                        89.9051
_cell_angle_gamma                       120.587
_symmetry_space_group_name_H-M          'P 1'
_space_group_name_Hall                  'P 1'
loop_
  _atom_site_type_symbol
  _atom_site_label
  _atom_site_fract_x
  _atom_site_fract_y
  _atom_site_fract_z
  _atom_site_charge
         B         B         0.56138   0.45167   0.99058   0.584311  
         C         C         0.53380   0.48171   0.99041   -0.219223           
         B         B         0.55462   0.11138   0.00072   0.584274  
         C         C         0.52645   0.05300   0.00264   -0.218187           
         B         B         0.88692   0.44424   0.00107   0.583638  
         C         C         0.94486   0.47192   0.00226   -0.218847           
         B         B         0.45135   0.56310   0.99449   0.583445  
         C         C         0.48117   0.53534   0.99256   -0.218681           
         B         B         0.44656   0.88698   0.00803   0.583574  
         C         C         0.47541   0.94537   0.00741   -0.218247           
         B         B         0.10974   0.55289   0.00464   0.584293  
         C         C         0.05174   0.52437   0.00445   -0.218307           
         C         C         0.27857   0.63587   0.05092   0.035080  
         C         C         0.18918   0.59224   0.95626   0.170669  
         H         H         0.23304   0.61534   0.83140   0.136305  
         O         O         0.13982   0.56802   0.92563   -0.337142           
         C         C         0.35941   0.63789   0.04881   0.034161  
         C         C         0.40894   0.60007   0.95005   0.172212  
         H         H         0.38546   0.62179   0.82722   0.134926  
         O         O         0.43563   0.57826   0.91705   -0.334982           
         C         C         0.35849   0.71683   0.05214   0.035268  
         C         C         0.40576   0.80759   0.95900   0.170221  
         H         H         0.38416   0.76495   0.83337   0.136528  
         O         O         0.43149   0.85741   0.92857   -0.335755           
         C         C         0.71782   0.36166   0.04558   0.034509  
         C         C         0.80791   0.40554   0.95193   0.169784  
         H         H         0.76505   0.38343   0.82647   0.134825  
         O         O         0.85746   0.42910   0.92184   -0.335223           
         C         C         0.63890   0.36207   0.04276   0.035065  
         C         C         0.59860   0.40965   0.94491   0.169629  
         H         H         0.61993   0.38639   0.82166   0.131395  
         O         O         0.57607   0.43594   0.91261   -0.335598           
         C         C         0.63739   0.28131   0.04532   0.035006  
         C         C         0.59461   0.19124   0.95153   0.170028  
         H         H         0.61838   0.23521   0.82626   0.134662  
         O         O         0.57109   0.14151   0.92153   -0.335904           
         C         C         0.63855   0.28111   0.94936   0.033803  
         C         C         0.59279   0.19146   0.04651   0.171464  
         H         H         0.61252   0.23596   0.17010   0.136189  
         O         O         0.56777   0.14194   0.07861   -0.336766           
         C         C         0.63963   0.36190   0.94680   0.032806  
         C         C         0.59785   0.40961   0.03992   0.171580  
         H         H         0.61763   0.38671   0.16552   0.134299  
         O         O         0.57472   0.43561   0.06999   -0.335874           
         C         C         0.71865   0.36140   0.94959   0.034030  
         C         C         0.80713   0.40620   0.04695   0.170790  
         H         H         0.76206   0.38528   0.17047   0.135671  
         O         O         0.85619   0.43046   0.07913   -0.335859           
         C         C         0.35874   0.71788   0.95617   0.033606  
         C         C         0.40526   0.80666   0.05405   0.169833  
         H         H         0.38192   0.76082   0.17736   0.133611  
         O         O         0.43071   0.85601   0.08631   -0.334403           
         C         C         0.35953   0.63911   0.95287   0.034106  
         C         C         0.40860   0.59856   0.04505   0.169757  
         H         H         0.38471   0.61675   0.17114   0.136205  
         O         O         0.43516   0.57578   0.07432   -0.336574           
         C         C         0.27862   0.63690   0.95498   0.033285  
         C         C         0.18919   0.59162   0.05128   0.171760  
         H         H         0.23294   0.61231   0.17525   0.132207  
         O         O         0.13988   0.56734   0.08299   -0.335456           
         C         C         0.33178   0.66274   0.09061   -0.075290           
         H         H         0.33191   0.66569   0.84016   0.091497  
         C         C         0.66418   0.33491   0.08456   -0.075777           
         H         H         0.66646   0.33457   0.83397   0.091461  
         C         C         0.66571   0.33463   0.90855   -0.074955           
         H         H         0.66342   0.33484   0.15916   0.092068  
         C         C         0.33191   0.66478   0.91470   -0.073970           
         H         H         0.33170   0.66171   0.16515   0.091560  
         C         C         0.49355   0.52017   0.07455   -0.065756           
         H         H         0.48253   0.52926   0.13902   0.110030  
         C         C         0.38413   0.61753   0.09724   -0.236316           
         C         C         0.48244   0.97329   0.08773   -0.065442           
         H         H         0.46763   0.95317   0.15201   0.108335  
         C         C         0.38182   0.76135   0.10341   -0.235748           
         C         C         0.02399   0.51456   0.08606   -0.066179           
         H         H         0.04405   0.52769   0.15035   0.109396  
         C         C         0.23365   0.61308   0.10132   -0.234018           
         C         C         0.51941   0.49379   0.07344   -0.067220           
         H         H         0.52865   0.48199   0.13696   0.110091  
         C         C         0.61803   0.38609   0.09160   -0.234320           
         C         C         0.50741   0.02616   0.08532   -0.066456           
         H         H         0.51199   0.04725   0.14761   0.109043  
         C         C         0.61409   0.23628   0.09618   -0.236856           
         C         C         0.97142   0.48872   0.08495   -0.067198           
         H         H         0.95026   0.48144   0.14825   0.109919  
         C         C         0.76225   0.38443   0.09655   -0.236804           
         C         C         0.52182   0.49729   0.90845   -0.065484           
         H         H         0.53300   0.48838   0.84399   0.108718  
         C         C         0.61940   0.38591   0.89557   -0.231786           
         C         C         0.97258   0.48141   0.92070   -0.066314           
         H         H         0.95250   0.46808   0.85652   0.109881  
         C         C         0.76392   0.38349   0.90042   -0.234418           
         C         C         0.51956   0.02507   0.92237   -0.065794           
         H         H         0.53403   0.04511   0.85790   0.109684  
         C         C         0.61732   0.23584   0.90018   -0.234903           
         C         C         0.49595   0.52369   0.90949   -0.066593           
         H         H         0.48704   0.53573   0.84581   0.108975  
         C         C         0.38462   0.62042   0.90113   -0.235898           
         C         C         0.02516   0.50729   0.92178   -0.066714           
         H         H         0.04624   0.51436   0.85849   0.110214  
         C         C         0.23365   0.61490   0.90533   -0.236353           
         C         C         0.49441   0.97223   0.92478   -0.066317           
         H         H         0.48937   0.95118   0.86226   0.109080  
         C         C         0.38279   0.76351   0.90729   -0.235793           
         B         B         0.55180   0.44197   0.50021   0.583973  
         C         C         0.52322   0.47117   0.50135   -0.218319           
         B         B         0.56621   0.11254   0.50140   0.585206  
         C         C         0.53694   0.05425   0.49988   -0.219519           
         B         B         0.88755   0.44643   0.50117   0.583878  
         C         C         0.94552   0.47386   0.49986   -0.219042           
         B         B         0.44314   0.55550   0.50709   0.582623  
         C         C         0.47127   0.52584   0.50671   -0.217132           
         B         B         0.44642   0.88873   0.49690   0.584524  
         C         C         0.47815   0.94695   0.49725   -0.218209           
         B         B         0.11047   0.55304   0.49702   0.583103  
         C         C         0.05244   0.52475   0.49738   -0.218671           
         C         C         0.27902   0.63853   0.54591   0.034303  
         C         C         0.19012   0.59226   0.44962   0.170215  
         H         H         0.23483   0.61352   0.32556   0.134641  
         O         O         0.14081   0.56711   0.41829   -0.335143           
         C         C         0.35891   0.63956   0.54825   0.033786  
         C         C         0.40442   0.59532   0.45666   0.171255  
         H         H         0.38376   0.61667   0.33036   0.136002  
         O         O         0.42906   0.57064   0.42725   -0.336484           
         C         C         0.35888   0.71923   0.54559   0.034714  
         C         C         0.40421   0.80905   0.44948   0.169892  
         H         H         0.38114   0.76500   0.32534   0.134617  
         O         O         0.42982   0.85876   0.41813   -0.334813           
         C         C         0.71889   0.36384   0.55023   0.034672  
         C         C         0.80824   0.40783   0.45411   0.170246  
         H         H         0.76415   0.38540   0.32995   0.135904  
         O         O         0.85749   0.43105   0.42262   -0.334719           
         C         C         0.63737   0.35971   0.54992   0.034540  
         C         C         0.59200   0.40303   0.45334   0.170298  
         H         H         0.61589   0.38268   0.32941   0.135836  
         O         O         0.56719   0.42723   0.42179   -0.335873           
         C         C         0.64140   0.28155   0.55030   0.034076  
         C         C         0.60193   0.19235   0.45433   0.171688  
         H         H         0.62136   0.23692   0.33005   0.136327  
         O         O         0.57925   0.14304   0.42278   -0.335924           
         C         C         0.64119   0.28183   0.45430   0.034392  
         C         C         0.60305   0.19205   0.54936   0.169717  
         H         H         0.62361   0.23559   0.67397   0.135049  
         O         O         0.58151   0.14243   0.58045   -0.335907           
         C         C         0.63781   0.36008   0.45396   0.033692  
         C         C         0.59162   0.40277   0.54840   0.172295  
         H         H         0.61376   0.38152   0.67334   0.134753  
         O         O         0.56663   0.42686   0.57908   -0.336905           
         C         C         0.71900   0.36365   0.45425   0.034594  
         C         C         0.80820   0.40881   0.54914   0.170414  
         H         H         0.76445   0.38746   0.67394   0.134987  
         O         O         0.85751   0.43320   0.58024   -0.335966           
         C         C         0.35912   0.71915   0.44965   0.034000  
         C         C         0.40476   0.80893   0.54452   0.170015  
         H         H         0.38187   0.76471   0.66921   0.136411  
         O         O         0.43090   0.85835   0.57591   -0.335216           
         C         C         0.35974   0.63945   0.45231   0.034967  
         C         C         0.40357   0.59542   0.55171   0.169140  
         H         H         0.37995   0.61733   0.67419   0.132308  
         O         O         0.42783   0.57092   0.58490   -0.334124           
         C         C         0.27952   0.63787   0.44998   0.034903  
         C         C         0.18976   0.59327   0.54466   0.169260  
         H         H         0.23304   0.61666   0.66954   0.136002  
         O         O         0.14038   0.56893   0.57593   -0.335625           
         C         C         0.33199   0.66587   0.58646   -0.076060           
         H         H         0.33344   0.66522   0.33595   0.091291  
         C         C         0.66550   0.33498   0.59021   -0.074866           
         H         H         0.66617   0.33565   0.33963   0.091746  
         C         C         0.66589   0.33538   0.41421   -0.075626           
         H         H         0.66537   0.33479   0.66480   0.091432  
         C         C         0.33306   0.66542   0.41053   -0.075183           
         H         H         0.33154   0.66608   0.66095   0.091976  
         C         C         0.48303   0.50919   0.58767   -0.062879           
         H         H         0.47171   0.51707   0.65297   0.105126  
         C         C         0.38079   0.61748   0.60025   -0.232711           
         C         C         0.50186   0.97286   0.57800   -0.066629           
         H         H         0.49750   0.95101   0.63955   0.109549  
         C         C         0.38175   0.76425   0.59532   -0.236417           
         C         C         0.02590   0.51882   0.57927   -0.066708           
         H         H         0.04695   0.53437   0.64189   0.109956  
         C         C         0.23393   0.61621   0.59561   -0.234788           
         C         C         0.50853   0.48241   0.58501   -0.066912           
         H         H         0.51734   0.46974   0.64807   0.108888  
         C         C         0.61415   0.38124   0.59939   -0.235252           
         C         C         0.53078   0.02565   0.57935   -0.065366           
         H         H         0.54905   0.04532   0.64199   0.109660  
         C         C         0.62281   0.23643   0.60006   -0.235657           
         C         C         0.97335   0.49379   0.58049   -0.066163           
         H         H         0.95342   0.48991   0.64410   0.109911  
         C         C         0.76373   0.38691   0.59998   -0.236253           
         C         C         0.51122   0.48757   0.42028   -0.065597           
         H         H         0.52208   0.47924   0.35492   0.109380  
         C         C         0.61511   0.38183   0.40335   -0.235667           
         C         C         0.97202   0.47966   0.41798   -0.066289           
         H         H         0.95090   0.46420   0.35527   0.109216  
         C         C         0.76383   0.38575   0.40387   -0.236172           
         C         C         0.51372   0.02832   0.41883   -0.066696           
         H         H         0.51840   0.05011   0.35704   0.109444  
         C         C         0.62146   0.23710   0.40400   -0.236740           
         C         C         0.48578   0.51441   0.42308   -0.067321           
         H         H         0.47669   0.52687   0.36014   0.109991  
         C         C         0.38273   0.61721   0.40425   -0.235737           
         C         C         0.02459   0.50470   0.41664   -0.066183           
         H         H         0.04459   0.50883   0.35298   0.109516  
         C         C         0.23488   0.61447   0.39950   -0.236243           
         C         C         0.48466   0.97552   0.41751   -0.065805           
         H         H         0.46653   0.95593   0.35473   0.108655  
         C         C         0.38144   0.76435   0.39928   -0.234505 

