
##########################################################################
#               Crystallographic Information Format file
#               Produced by PyCifRW module
#
#  This is a CIF file.  CIF has been adopted by the International
#  Union of Crystallography as the standard for data archiving and
#  transmission.
#
#  For information on this file format, follow the CIF links at
#  http://www.iucr.org
##########################################################################

data_image0

_cell_length_a                          7.22505
_cell_length_b                          7.22509
_cell_length_c                          7.77841
_cell_angle_alpha                       91.1751
_cell_angle_beta                        91.4113
_cell_angle_gamma                       120.015
_symmetry_space_group_name_H-M          'P 1'
_space_group_name_Hall                  'P 1'
loop_
  _atom_site_type_symbol
  _atom_site_label
  _atom_site_fract_x
  _atom_site_fract_y
  _atom_site_fract_z
  _atom_site_charge
         C         C         0.11675   0.54862   0.24590   0.001542  
         C         C         0.22877   0.77276   0.24661   -0.094978           
         C         C         0.56921   0.43227   0.24447   0.367970  
         N         N         0.45368   0.21704   0.24478   -0.399744           
         C         C         0.45290   0.54855   0.24433   0.000409  
         C         C         0.22881   0.43653   0.24521   -0.093580           
         C         C         0.56915   0.11736   0.24514   0.368749  
         N         N         0.78432   0.21702   0.24520   -0.399958           
         C         C         0.45280   0.88475   0.24530   -0.000058           
         C         C         0.56487   0.77268   0.24405   -0.092505           
         C         C         0.88412   0.43220   0.24540   0.367296  
         N         N         0.78443   0.54770   0.24489   -0.399086           
         H         H         0.14207   0.85946   0.24768   0.124943  
         H         H         0.73812   0.85931   0.24262   0.124280  
         H         H         0.14198   0.26319   0.24480   0.124765  
         C         C         0.09880   0.56236   0.75608   0.000045  
         C         C         0.21081   0.78643   0.75543   -0.092180           
         C         C         0.55126   0.44596   0.75590   0.368328  
         N         N         0.43579   0.23077   0.75628   -0.399996           
         C         C         0.43498   0.56231   0.75594   0.000794  
         C         C         0.21091   0.45038   0.75689   -0.093928           
         C         C         0.55127   0.13110   0.75620   0.369076  
         N         N         0.76648   0.23088   0.75652   -0.400048           
         C         C         0.43492   0.89848   0.75579   -0.000416           
         C         C         0.54695   0.78641   0.75552   -0.094335           
         C         C         0.86620   0.44607   0.75614   0.368687  
         N         N         0.76642   0.56145   0.75546   -0.399852           
         H         H         0.12403   0.87302   0.75550   0.124580  
         H         H         0.72031   0.87305   0.75512   0.124584  
         H         H         0.12423   0.27705   0.75792   0.124617 

