
##########################################################################
#               Crystallographic Information Format file
#               Produced by PyCifRW module
#
#  This is a CIF file.  CIF has been adopted by the International
#  Union of Crystallography as the standard for data archiving and
#  transmission.
#
#  For information on this file format, follow the CIF links at
#  http://www.iucr.org
##########################################################################

data_image0

_cell_length_a                          23.449
_cell_length_b                          23.5026
_cell_length_c                          8.68327
_cell_angle_alpha                       89.437
_cell_angle_beta                        89.895
_cell_angle_gamma                       87.642
_symmetry_space_group_name_H-M          'P 1'
_space_group_name_Hall                  'P 1'
loop_
  _atom_site_type_symbol
  _atom_site_label
  _atom_site_fract_x
  _atom_site_fract_y
  _atom_site_fract_z
  _atom_site_charge
         C         C         0.05337   0.32028   0.95416   -0.129936           
         C         C         0.05744   0.35700   0.82858   -0.143203           
         C         C         0.92403   0.20754   0.29795   -0.125653           
         C         C         0.88571   0.21044   0.41987   -0.165894           
         H         H         0.09212   0.30381   0.01003   0.098411  
         H         H         0.09886   0.36856   0.78461   0.108333  
         H         H         0.94094   0.16615   0.26087   0.096006  
         H         H         0.87253   0.17093   0.47251   0.089040  
         C         C         0.03492   0.46267   0.30624   -0.095551           
         C         C         0.03722   0.48462   0.15722   -0.113071           
         C         C         0.79224   0.18138   0.94013   -0.126443           
         C         C         0.77090   0.18180   0.08885   -0.136684           
         H         H         0.07358   0.45589   0.37421   0.114143  
         H         H         0.07822   0.49619   0.11022   0.108626  
         H         H         0.79994   0.14105   0.88131   0.097267  
         H         H         0.76189   0.14130   0.14295   0.099309  
         C         C         0.54929   0.82761   0.45325   -0.130391           
         C         C         0.54546   0.86578   0.32952   -0.171872           
         C         C         0.42844   0.70520   0.79837   -0.128654           
         C         C         0.38992   0.70878   0.92029   -0.167242           
         H         H         0.59093   0.81680   0.50272   0.095167  
         H         H         0.58383   0.88578   0.28904   0.094502  
         H         H         0.44023   0.66359   0.75179   0.097798  
         H         H         0.37070   0.67020   0.96168   0.091381  
         C         C         0.57404   0.94813   0.78808   -0.131948           
         C         C         0.57208   0.97018   0.63960   -0.140420           
         C         C         0.30087   0.67601   0.44592   -0.130786           
         C         C         0.27913   0.67606   0.59429   -0.136324           
         H         H         0.61474   0.93337   0.83767   0.101670  
         H         H         0.61149   0.97176   0.57402   0.100400  
         H         H         0.31165   0.63572   0.38972   0.100128  
         H         H         0.27218   0.63543   0.65046   0.103786  
         C         C         0.95285   0.17826   0.95633   -0.125266           
         C         C         0.95726   0.13924   0.83710   -0.170982           
         C         C         0.06273   0.30705   0.30275   -0.130158           
         C         C         0.09928   0.30888   0.42823   -0.145371           
         H         H         0.91074   0.19220   -0.00296  0.096104  
         H         H         0.91852   0.12229   0.79039   0.092107  
         H         H         0.04651   0.34675   0.25099   0.099252  
         H         H         0.11087   0.34937   0.47619   0.110545  
         C         C         0.93107   0.05731   0.30968   -0.129619           
         C         C         0.93124   0.03572   0.16212   -0.136607           
         C         C         0.20212   0.28030   0.94093   -0.097916           
         C         C         0.22302   0.28193   0.08996   -0.119761           
         H         H         0.89115   0.07353   0.36049   0.099483  
         H         H         0.89127   0.03635   0.09913   0.100258  
         H         H         0.18886   0.31923   0.87969   0.115632  
         H         H         0.22552   0.32297   0.14569   0.107787  
         C         C         0.45655   0.67555   0.45857   -0.131515           
         C         C         0.45935   0.63802   0.33552   -0.167574           
         C         C         0.57985   0.79622   0.79389   -0.129500           
         C         C         0.61826   0.79187   0.91581   -0.169971           
         H         H         0.41530   0.68629   0.51009   0.097655  
         H         H         0.42060   0.61854   0.29758   0.092457  
         H         H         0.56791   0.83799   0.74683   0.095102  
         H         H         0.63738   0.83021   0.95714   0.090419  
         C         C         0.43207   0.54139   0.80568   -0.119752           
         C         C         0.43776   0.51878   0.65903   -0.114243           
         C         C         0.70919   0.81641   0.44773   -0.120189           
         C         C         0.73093   0.81251   0.59614   -0.114362           
         H         H         0.38997   0.54563   0.85865   0.102500  
         H         H         0.39991   0.50452   0.60145   0.102952  
         H         H         0.70134   0.85807   0.39400   0.102280  
         H         H         0.73973   0.85162   0.65567   0.101172  
         C         C         0.95364   0.82426   0.07499   -0.125348           
         C         C         0.95553   0.85844   0.20447   -0.160599           
         C         C         0.06673   0.70938   0.67956   -0.122942           
         C         C         0.10170   0.70972   0.55026   -0.160405           
         H         H         0.91302   0.80756   0.04082   0.096802  
         H         H         0.91629   0.86665   0.26901   0.102384  
         H         H         0.05093   0.66902   0.72032   0.099478  
         H         H         0.11097   0.66985   0.49077   0.104886  
         C         C         0.92704   0.96681   0.70624   -0.130799           
         C         C         0.92882   0.98574   0.85660   -0.136372           
         C         C         0.22248   0.67597   0.06788   -0.130296           
         C         C         0.24324   0.67646   0.91839   -0.136478           
         H         H         0.88597   0.96236   0.64993   0.098762  
         H         H         0.88864   0.99538   0.91502   0.099281  
         H         H         0.22126   0.63606   0.13245   0.100758  
         H         H         0.25927   0.63658   0.86931   0.100352  
         C         C         0.44358   0.33130   0.53544   -0.131166           
         C         C         0.43937   0.36757   0.66079   -0.146137           
         C         C         0.57275   0.20824   0.19745   -0.120907           
         C         C         0.61014   0.20996   0.07368   -0.168378           
         H         H         0.40517   0.32036   0.47466   0.099208  
         H         H         0.39811   0.38510   0.69850   0.107701  
         H         H         0.55560   0.16776   0.23211   0.095864  
         H         H         0.62220   0.17035   0.01637   0.089166  
         C         C         0.45536   0.46259   0.18318   -0.105853           
         C         C         0.44937   0.48195   0.33285   -0.138997           
         C         C         0.70813   0.18015   0.55615   -0.127767           
         C         C         0.72911   0.18119   0.40701   -0.138037           
         H         H         0.41813   0.45535   0.11247   0.109428  
         H         H         0.40660   0.49044   0.37769   0.101737  
         H         H         0.70214   0.13943   0.61385   0.098103  
         H         H         0.73946   0.14087   0.35152   0.099232  
         C         C         0.05943   0.68743   0.03205   -0.123337           
         C         C         0.06455   0.64798   0.15181   -0.150173           
         C         C         0.92408   0.81670   0.72392   -0.130744           
         C         C         0.88722   0.82086   0.59854   -0.154512           
         H         H         0.09762   0.70510   0.98306   0.102674  
         H         H         0.10626   0.63485   0.19705   0.099572  
         H         H         0.93655   0.85514   0.78119   0.098590  
         H         H         0.87025   0.86207   0.55799   0.094634  
         C         C         0.03790   0.54066   0.67085   -0.094001           
         C         C         0.03831   0.51798   0.81912   -0.113037           
         C         C         0.79941   0.80029   0.06167   -0.110051           
         C         C         0.77925   0.80406   0.91177   -0.137340           
         H         H         0.07676   0.54104   0.60229   0.113133  
         H         H         0.07783   0.49896   0.86495   0.108603  
         H         H         0.81078   0.83815   0.12393   0.111025  
         H         H         0.77568   0.84580   0.85700   0.101371  
         C         C         0.54671   0.17739   0.54144   -0.126073           
         C         C         0.54370   0.13793   0.66156   -0.172892           
         C         C         0.43537   0.31357   0.18619   -0.130699           
         C         C         0.39939   0.31631   0.05905   -0.148257           
         H         H         0.58829   0.18810   0.49661   0.094041  
         H         H         0.58305   0.11795   0.70604   0.093549  
         H         H         0.45180   0.35268   0.23081   0.099008  
         H         H         0.38769   0.35697   0.00459   0.107671  
         C         C         0.57013   0.05679   0.20198   -0.132034           
         C         C         0.56926   0.03505   0.35062   -0.139805           
         C         C         0.29638   0.28391   0.55181   -0.098895           
         C         C         0.27557   0.28355   0.40256   -0.115264           
         H         H         0.60944   0.07331   0.15567   0.099526  
         H         H         0.60774   0.03583   0.41987   0.100304  
         H         H         0.30932   0.32310   0.60468   0.114799  
         H         H         0.27248   0.32332   0.33763   0.107040  
         C         C         0.95717   0.68210   0.04120   -0.129144           
         C         C         0.96218   0.64208   0.16005   -0.168905           
         C         C         0.06848   0.81160   0.69314   -0.130479           
         C         C         0.10421   0.81228   0.56531   -0.150946           
         H         H         0.91493   0.69527   -0.00076  0.097184  
         H         H         0.92381   0.62342   0.20512   0.095406  
         H         H         0.05339   0.85162   0.74326   0.095151  
         H         H         0.11719   0.85228   0.51512   0.107745  
         C         C         0.93652   0.56190   0.69418   -0.130048           
         C         C         0.93732   0.54022   0.84281   -0.134186           
         C         C         0.20357   0.77761   0.05339   -0.098468           
         C         C         0.22426   0.77794   0.90385   -0.112665           
         H         H         0.89678   0.57979   0.64566   0.102072  
         H         H         0.89813   0.54220   0.90963   0.102603  
         H         H         0.18790   0.81674   0.10772   0.115068  
         H         H         0.22409   0.81818   0.84111   0.107664  
         C         C         0.44427   0.18821   0.53729   -0.123208           
         C         C         0.44111   0.14863   0.65662   -0.149415           
         C         C         0.57670   0.30972   0.22493   -0.130276           
         C         C         0.61320   0.31169   0.09845   -0.155111           
         H         H         0.40510   0.20793   0.49109   0.103952  
         H         H         0.40004   0.13711   0.70295   0.100489  
         H         H         0.56335   0.34899   0.28222   0.097409  
         H         H         0.62817   0.35214   0.05591   0.098751  
         C         C         0.46973   0.04013   0.17450   -0.091578           
         C         C         0.46924   0.01734   0.32275   -0.115192           
         C         C         0.70108   0.28276   0.55692   -0.095358           
         C         C         0.72208   0.28361   0.40725   -0.110504           
         H         H         0.43114   0.04231   0.10497   0.114564  
         H         H         0.42997   0.00033   0.36700   0.110386  
         H         H         0.68978   0.32221   0.61629   0.115696  
         H         H         0.72653   0.32462   0.35062   0.106708  
         C         C         0.05536   0.82837   0.04484   -0.132215           
         C         C         0.05763   0.86264   0.17429   -0.150289           
         C         C         0.93009   0.71490   0.69628   -0.121440           
         C         C         0.89332   0.71897   0.57125   -0.168996           
         H         H         0.09480   0.81498   0.98751   0.097768  
         H         H         0.09830   0.87606   0.21812   0.108721  
         H         H         0.94751   0.67325   0.73194   0.094625  
         H         H         0.88239   0.68015   0.51303   0.091783  
         C         C         0.02971   0.95647   0.70228   -0.098300           
         C         C         0.03142   0.97646   0.85204   -0.107603           
         C         C         0.79269   0.69831   0.05474   -0.115160           
         C         C         0.77169   0.70233   0.90555   -0.110329           
         H         H         0.06895   0.94498   0.64101   0.115605  
         H         H         0.07278   0.98062   0.90608   0.107780  
         H         H         0.79783   0.65674   0.11071   0.103740  
         H         H         0.76042   0.66347   0.84844   0.104069  
         C         C         0.54483   0.31948   0.57711   -0.121903           
         C         C         0.54084   0.35504   0.70399   -0.162765           
         C         C         0.43293   0.21125   0.18673   -0.127463           
         C         C         0.39784   0.21356   0.05791   -0.162616           
         H         H         0.58600   0.29939   0.54771   0.095571  
         H         H         0.57892   0.36019   0.77310   0.103437  
         H         H         0.44668   0.16990   0.23380   0.099719  
         H         H         0.38640   0.17375   0.00563   0.106114  
         C         C         0.55762   0.46148   0.21083   -0.111796           
         C         C         0.55146   0.48012   0.36124   -0.113762           
         C         C         0.28498   0.18236   0.57053   -0.126936           
         C         C         0.26438   0.18210   0.42120   -0.137750           
         H         H         0.60021   0.45337   0.16355   0.102178  
         H         H         0.58965   0.48572   0.42901   0.103758  
         H         H         0.28849   0.14289   0.63737   0.100505  
         H         H         0.25085   0.14223   0.37389   0.105253  
         C         C         0.05519   0.18026   0.96974   -0.125813           
         C         C         0.05972   0.14183   0.84928   -0.150470           
         C         C         0.91997   0.30965   0.27589   -0.129995           
         C         C         0.88235   0.31266   0.40002   -0.158906           
         H         H         0.09374   0.19603   0.02044   0.101284  
         H         H         0.10126   0.12759   0.80526   0.099043  
         H         H         0.93328   0.34873   0.22116   0.097664  
         H         H         0.86622   0.35356   0.44288   0.098901  
         C         C         0.03288   0.03895   0.32737   -0.095181           
         C         C         0.03275   0.01660   0.17994   -0.114803           
         C         C         0.79384   0.28385   0.93984   -0.098506           
         C         C         0.77289   0.28409   0.08955   -0.109110           
         H         H         0.07221   0.03993   0.39345   0.116271  
         H         H         0.07272   -0.00036  0.13221   0.108025  
         H         H         0.80274   0.32350   0.88051   0.115916  
         H         H         0.76619   0.32476   0.14655   0.106608  
         C         C         0.55807   0.68595   0.44193   -0.126516           
         C         C         0.56085   0.64990   0.31637   -0.145930           
         C         C         0.43712   0.80687   0.80375   -0.126847           
         C         C         0.39966   0.81048   0.92781   -0.146366           
         H         H         0.59681   0.70475   0.48256   0.096460  
         H         H         0.60102   0.64168   0.25611   0.108075  
         H         H         0.45571   0.84547   0.75985   0.098245  
         H         H         0.38980   0.85113   0.98257   0.111344  
         C         C         0.53386   0.55174   0.81640   -0.108177           
         C         C         0.53913   0.53062   0.66873   -0.133386           
         C         C         0.29452   0.77877   0.43901   -0.098656           
         C         C         0.27311   0.77868   0.58791   -0.117139           
         H         H         0.57078   0.56527   0.87998   0.109958  
         H         H         0.58124   0.52859   0.61651   0.105794  
         H         H         0.30037   0.81858   0.37715   0.117479  
         H         H         0.26230   0.81923   0.64168   0.109034  
         C         C         0.95116   0.32338   0.92838   -0.126804           
         C         C         0.95491   0.36030   0.80289   -0.162680           
         C         C         0.06540   0.20463   0.31982   -0.126800           
         C         C         0.10180   0.20613   0.44580   -0.160788           
         H         H         0.90951   0.30937   0.96445   0.096943  
         H         H         0.91567   0.37413   0.74465   0.104948  
         H         H         0.05131   0.16367   0.28078   0.099612  
         H         H         0.11439   0.16616   0.50286   0.104961  
         C         C         0.93260   0.45834   0.28391   -0.128711           
         C         C         0.93503   0.47925   0.13479   -0.140323           
         C         C         0.21370   0.17771   0.94604   -0.132428           
         C         C         0.23488   0.17947   0.09453   -0.134485           
         H         H         0.89183   0.44685   0.33300   0.100776  
         H         H         0.89596   0.48319   0.06785   0.103733  
         H         H         0.20986   0.13695   0.88907   0.101303  
         H         H         0.24855   0.13972   0.15061   0.104358  
         C         C         0.44769   0.81705   0.44347   -0.121093           
         C         C         0.44377   0.85404   0.31800   -0.147930           
         C         C         0.57083   0.69464   0.80039   -0.124815           
         C         C         0.60792   0.69021   0.92463   -0.147447           
         H         H         0.40937   0.79773   0.48641   0.099304  
         H         H         0.40301   0.86280   0.26123   0.112194  
         H         H         0.55197   0.65651   0.75692   0.097640  
         H         H         0.61712   0.64933   0.98098   0.109166  
         C         C         0.47151   0.95986   0.80750   -0.092671           
         C         C         0.46972   0.98248   0.65917   -0.112184           
         C         C         0.70802   0.71405   0.43609   -0.106308           
         C         C         0.72880   0.71039   0.58531   -0.133560           
         H         H         0.43254   0.95541   0.87400   0.114657  
         H         H         0.42879   0.99692   0.61121   0.110515  
         H         H         0.69834   0.67595   0.37255   0.110939  
         H         H         0.73505   0.66841   0.63749   0.104022  
         C         C         0.99724   0.25368   0.12503   0.011901  
         C         C         0.50358   0.75124   0.62476   0.014035  
         C         C         0.00127   0.75992   0.87439   0.011251  
         C         C         0.50026   0.25755   0.37500   0.014473  
         C         C         0.00031   0.30230   0.00566   0.067436  
         C         C         0.00855   0.37678   0.74794   0.196869  
         N         N         0.01829   0.40853   0.61306   -0.286962           
         C         C         0.98739   0.49344   0.06674   0.069749  
         C         C         0.98237   0.44900   0.37301   0.055834  
         C         C         0.97607   0.42216   0.52264   0.063137  
         H         H         0.93195   0.41177   0.55037   0.053508  
         C         C         0.50061   0.80197   0.51124   0.067980  
         C         C         0.49296   0.87733   0.25427   0.199799  
         N         N         0.48528   0.90786   0.11571   -0.286308           
         C         C         0.51986   0.98862   0.57070   0.071976  
         C         C         0.52390   0.94256   0.87598   0.053791  
         C         C         0.52867   0.91602   0.02710   0.065018  
         H         H         0.57217   0.90109   0.05876   0.051477  
         C         C         0.00164   0.20088   0.02181   0.068555  
         C         C         0.01098   0.12311   0.77428   0.201706  
         N         N         0.02032   0.09195   0.63870   -0.295462           
         C         C         0.98210   0.01453   0.09171   0.073423  
         C         C         0.98183   0.05998   0.39586   0.053695  
         C         C         0.97804   0.08713   0.54476   0.065044  
         H         H         0.93555   0.10617   0.57037   0.049101  
         C         C         0.50572   0.70082   0.51276   0.067330  
         C         C         0.51112   0.62682   0.25682   0.201385  
         N         N         0.51755   0.59731   0.11835   -0.291553           
         C         C         0.49129   0.51338   0.58465   0.070119  
         C         C         0.48003   0.55832   0.88786   0.057932  
         C         C         0.47364   0.58377   0.03870   0.066880  
         H         H         0.42942   0.59204   0.07743   0.052898  
         C         C         0.00340   0.80796   0.99346   0.066747  
         C         C         0.00804   0.87772   0.25826   0.199122  
         N         N         0.01577   0.90652   0.39683   -0.279087           
         C         C         0.98110   0.99180   0.93468   0.068704  
         C         C         0.97739   0.95116   0.62535   0.061874  
         C         C         0.97244   0.92776   0.47216   0.061057  
         H         H         0.92880   0.92851   0.42584   0.055121  
         C         C         0.49635   0.30634   0.49165   0.062587  
         C         C         0.48752   0.37966   0.74900   0.197133  
         N         N         0.47708   0.41085   0.88345   -0.283489           
         C         C         0.49715   0.49128   0.42738   0.070687  
         C         C         0.50987   0.45158   0.11850   0.057723  
         C         C         0.51875   0.42775   0.96649   0.063254  
         H         H         0.56357   0.42313   0.92990   0.058660  
         C         C         0.00563   0.70668   0.97821   0.068351  
         C         C         0.01597   0.62701   0.22432   0.199702  
         N         N         0.02535   0.59537   0.36071   -0.294184           
         C         C         0.98821   0.51735   0.91006   0.069970  
         C         C         0.98681   0.56300   0.60484   0.053150  
         C         C         0.98286   0.59011   0.45459   0.065164  
         H         H         0.94016   0.60844   0.42717   0.050846  
         C         C         0.49724   0.20474   0.48052   0.069064  
         C         C         0.49067   0.12525   0.72776   0.201392  
         N         N         0.48243   0.09383   0.86397   -0.293199           
         C         C         0.51895   0.01382   0.41519   0.070805  
         C         C         0.52052   0.05989   0.10996   0.052229  
         C         C         0.52458   0.08652   0.95914   0.064883  
         H         H         0.56689   0.10272   0.93322   0.050077  
         C         C         0.94365   0.25708   0.22719   0.072366  
         C         C         0.86700   0.26342   0.48062   0.203387  
         N         N         0.83796   0.27174   0.62067   -0.295806           
         C         C         0.76043   0.23321   0.16934   0.070824  
         C         C         0.80412   0.23231   0.86131   0.058726  
         C         C         0.82801   0.22820   0.70778   0.064405  
         H         H         0.66449   0.18243   0.82845   0.049913  
         C         C         0.45314   0.75412   0.73852   0.067256  
         C         C         0.37695   0.76121   0.99251   0.200008  
         N         N         0.34582   0.76839   0.12983   -0.291353           
         C         C         0.26546   0.72751   0.67145   0.071233  
         C         C         0.30960   0.72724   0.36506   0.056776  
         C         C         0.33632   0.72418   0.21467   0.066237  
         H         H         0.17929   0.68130   0.34681   0.056409  
         C         C         0.04509   0.25495   0.24619   0.062101  
         C         C         0.11886   0.25869   0.50376   0.200384  
         N         N         0.15048   0.26633   0.63836   -0.289870           
         C         C         0.23925   0.23159   0.17239   0.070512  
         C         C         0.19625   0.22791   0.86639   0.057160  
         C         C         0.16997   0.22279   0.71664   0.062618  
         H         H         0.32639   0.18849   0.84802   0.054019  
         C         C         0.55474   0.74781   0.73542   0.069206  
         C         C         0.63068   0.73903   0.98894   0.200524  
         N         N         0.66119   0.73072   0.12652   -0.290196           
         C         C         0.74123   0.75938   0.67081   0.071395  
         C         C         0.69717   0.76741   0.36387   0.060176  
         C         C         0.67131   0.77371   0.21284   0.064551  
         H         H         0.83543   0.69558   0.33000   0.054334  
         C         C         0.04922   0.76026   0.75295   0.061029  
         C         C         0.12113   0.76158   0.49068   0.199535  
         N         N         0.15195   0.76742   0.35382   -0.282244           
         C         C         0.24420   0.72736   0.83065   0.067396  
         C         C         0.20178   0.72640   0.13838   0.061605  
         C         C         0.17665   0.72342   0.29054   0.060952  
         H         H         0.34976   0.68088   0.17982   0.048575  
         C         C         0.55380   0.25823   0.27264   0.069761  
         C         C         0.62862   0.26234   0.01534   0.200383  
         N         N         0.65697   0.27002   0.87459   -0.293586           
         C         C         0.73712   0.23297   0.32696   0.071227  
         C         C         0.69384   0.23087   0.63566   0.055222  
         C         C         0.67060   0.22646   0.78990   0.064232  
         H         H         0.83820   0.18433   0.67139   0.049095  
         C         C         0.94801   0.76380   0.77134   0.070858  
         C         C         0.87349   0.77257   0.51413   0.201456  
         N         N         0.84503   0.78244   0.37391   -0.297525           
         C         C         0.76428   0.75533   0.82839   0.071201  
         C         C         0.80692   0.74705   0.13687   0.056404  
         C         C         0.83038   0.74007   0.29046   0.066442  
         H         H         0.65846   0.81767   0.18013   0.052908  
         C         C         0.45271   0.26105   0.25266   0.060647  
         C         C         0.38053   0.26644   0.99106   0.202360  
         N         N         0.34987   0.27363   0.85326   -0.285453           
         C         C         0.25973   0.23258   0.33179   0.067718  
         C         C         0.30201   0.23307   0.63859   0.060861  
         C         C         0.32717   0.23035   0.79084   0.060847  
         H         H         0.16624   0.17883   0.67746   0.053532 

