
##########################################################################
#               Crystallographic Information Format file
#               Produced by PyCifRW module
#
#  This is a CIF file.  CIF has been adopted by the International
#  Union of Crystallography as the standard for data archiving and
#  transmission.
#
#  For information on this file format, follow the CIF links at
#  http://www.iucr.org
##########################################################################

data_image0

_cell_length_a                          30.6397
_cell_length_b                          30.6029
_cell_length_c                          7.93123
_cell_angle_alpha                       123.375
_cell_angle_beta                        99.7781
_cell_angle_gamma                       59.5326
_symmetry_space_group_name_H-M          'P 1'
_space_group_name_Hall                  'P 1'
loop_
  _atom_site_type_symbol
  _atom_site_label
  _atom_site_fract_x
  _atom_site_fract_y
  _atom_site_fract_z
  _atom_site_charge
         C         C         0.41482   0.35397   0.68871   0.127117  
         N         N         0.40835   0.40062   0.68805   -0.230656           
         C         C         0.44586   0.41297   0.68176   0.218847  
         C         C         0.49831   0.37602   0.67656   -0.179206           
         C         C         0.55549   0.46184   0.69175   0.332582  
         C         C         0.51722   0.44545   0.68673   -0.064166           
         C         C         0.46489   0.48166   0.68772   -0.014967           
         C         C         0.53318   0.39269   0.68056   -0.073951           
         C         C         0.42960   0.46554   0.68661   -0.180381           
         O         O         0.40011   0.56903   0.69024   -0.378103           
         H         H         0.54706   0.68060   0.70688   0.105274  
         H         H         0.48956   0.66525   0.71531   0.131631  
         H         H         0.42752   0.63511   0.70878   0.133368  
         H         H         0.61190   0.50519   0.69490   0.146881  
         H         H         0.36946   0.42955   0.69555   0.278859  
         C         C         0.58560   0.64679   0.69891   0.123310  
         N         N         0.59260   0.60004   0.70019   -0.229802           
         C         C         0.55529   0.58747   0.70678   0.217781  
         C         C         0.50283   0.62455   0.71296   -0.180652           
         C         C         0.44586   0.53803   0.69324   0.331591  
         C         C         0.48400   0.55488   0.70118   -0.062670           
         C         C         0.53633   0.51861   0.69974   -0.016207           
         C         C         0.46798   0.60788   0.70892   -0.074088           
         C         C         0.57159   0.53482   0.70129   -0.177892           
         O         O         0.60143   0.43013   0.68988   -0.377357           
         H         H         0.45323   0.31971   0.67968   0.104693  
         H         H         0.51154   0.33536   0.67453   0.131771  
         H         H         0.57363   0.36562   0.68173   0.133732  
         H         H         0.38929   0.49500   0.69209   0.147214  
         H         H         0.63155   0.57153   0.69372   0.279046  
         C         C         0.23195   0.41733   0.69833   0.121110  
         N         N         0.19207   0.40992   0.69324   -0.222210           
         C         C         0.14105   0.44612   0.68736   0.216644  
         C         C         0.12356   0.49940   0.69329   -0.185273           
         C         C         0.98217   0.55502   0.68614   0.338973  
         C         C         0.03669   0.51711   0.68831   -0.057511           
         C         C         0.05427   0.46392   0.68329   -0.003934           
         C         C         0.07199   0.53399   0.69257   -0.066334           
         C         C         0.10617   0.42863   0.68141   -0.183306           
         O         O         0.03312   0.40072   0.69553   -0.384502           
         H         H         0.77422   0.54621   0.68552   0.102797  
         H         H         0.85002   0.48737   0.67883   0.123042  
         H         H         0.94242   0.42586   0.68106   0.125900  
         H         H         0.88176   0.61201   0.69179   0.140654  
         H         H         0.20378   0.37094   0.69195   0.276393  
         C         C         0.76820   0.58390   0.68170   0.125266  
         N         N         0.80810   0.59074   0.68153   -0.227442           
         C         C         0.85921   0.55433   0.68587   0.218735  
         C         C         0.87661   0.50126   0.68123   -0.180924           
         C         C         0.01813   0.44515   0.68612   0.338860  
         C         C         0.96359   0.48312   0.68421   -0.055342           
         C         C         0.94606   0.53616   0.68835   -0.006937           
         C         C         0.92818   0.46657   0.68177   -0.063317           
         C         C         0.89418   0.57155   0.69031   -0.181804           
         O         O         0.96715   0.59959   0.67754   -0.385131           
         H         H         0.22613   0.45527   0.69662   0.104164  
         H         H         0.15006   0.51356   0.69729   0.126767  
         H         H         0.05758   0.57498   0.69500   0.129698  
         H         H         0.11868   0.38810   0.67963   0.141582  
         H         H         0.79630   0.62962   0.68200   0.277259  
         C         C         0.35365   0.23670   0.71052   0.114117  
         N         N         0.40037   0.19638   0.71262   -0.230536           
         C         C         0.41380   0.14513   0.70995   0.231471  
         C         C         0.37794   0.12810   0.69995   -0.181340           
         C         C         0.46142   0.98321   0.68425   0.328470  
         C         C         0.44579   0.03890   0.69375   -0.062124           
         C         C         0.48133   0.05677   0.70775   -0.018965           
         C         C         0.39420   0.07542   0.69076   -0.062179           
         C         C         0.46528   0.10947   0.71571   -0.190737           
         O         O         0.56701   0.03754   0.73551   -0.382210           
         H         H         0.67775   0.76995   0.67121   0.105123  
         H         H         0.66037   0.84744   0.69610   0.128255  
         H         H         0.63044   0.94268   0.71662   0.131444  
         H         H         0.50482   0.88053   0.66845   0.147947  
         H         H         0.42814   0.20643   0.70947   0.278247  
         C         C         0.64515   0.76535   0.67688   0.113703  
         N         N         0.59816   0.80606   0.67849   -0.228696           
         C         C         0.58449   0.85761   0.68284   0.227112  
         C         C         0.62023   0.87486   0.69346   -0.180003           
         C         C         0.53634   0.02068   0.71681   0.330471  
         C         C         0.55208   0.96454   0.70391   -0.060689           
         C         C         0.51663   0.94651   0.68925   -0.018747           
         C         C         0.60378   0.92793   0.70532   -0.060568           
         C         C         0.53291   0.89335   0.67850   -0.190580           
         O         O         0.43054   0.96716   0.67184   -0.379022           
         H         H         0.32098   0.23192   0.71382   0.105340  
         H         H         0.33788   0.15539   0.69586   0.131549  
         H         H         0.36736   0.06102   0.68058   0.132703  
         H         H         0.49362   0.12185   0.72483   0.146669  
         H         H         0.57053   0.79593   0.68254   0.279743  
         C         C         0.67838   0.61182   0.68327   0.357981  
         C         C         0.62588   0.65433   0.68863   -0.242036           
         O         O         0.68892   0.56637   0.68534   -0.457290           
         C         C         0.61290   0.70702   0.68669   0.352906  
         C         C         0.65448   0.71646   0.67995   -0.246728           
         O         O         0.56683   0.74342   0.69166   -0.461048           
         C         C         0.70764   0.67575   0.67847   0.348940  
         C         C         0.71868   0.62369   0.67904   -0.238509           
         O         O         0.74283   0.68610   0.67765   -0.461588           
         C         C         0.32179   0.38977   0.70406   0.359393  
         C         C         0.37413   0.34705   0.69928   -0.243473           
         O         O         0.31162   0.43540   0.70409   -0.457961           
         C         C         0.38659   0.29458   0.70138   0.354718  
         C         C         0.34477   0.28528   0.70626   -0.245373           
         O         O         0.43249   0.25818   0.69806   -0.461952           
         C         C         0.29193   0.32569   0.70370   0.348123  
         C         C         0.28124   0.37777   0.70405   -0.237912           
         O         O         0.25664   0.31511   0.70085   -0.461914           
         C         C         0.41385   0.35427   0.19091   0.127333  
         N         N         0.40706   0.40103   0.19019   -0.230479           
         C         C         0.44462   0.41324   0.18303   0.217617  
         C         C         0.49707   0.37613   0.17735   -0.173877           
         C         C         0.55439   0.46226   0.19622   0.332833  
         C         C         0.51616   0.44553   0.18835   -0.064299           
         C         C         0.46387   0.48175   0.18909   -0.014532           
         C         C         0.53206   0.39262   0.18102   -0.078841           
         C         C         0.42849   0.46569   0.18735   -0.179561           
         O         O         0.39903   0.56974   0.19548   -0.377879           
         H         H         0.54673   0.68060   0.20840   0.105636  
         H         H         0.48904   0.66410   0.20996   0.130468  
         H         H         0.42673   0.63442   0.20604   0.131584  
         H         H         0.61092   0.50548   0.19901   0.146746  
         H         H         0.36817   0.42989   0.19756   0.283926  
         C         C         0.58522   0.64607   0.19745   0.125620  
         N         N         0.59194   0.59925   0.19772   -0.230139           
         C         C         0.55451   0.58701   0.20587   0.217942  
         C         C         0.50210   0.62385   0.21037   -0.176508           
         C         C         0.44485   0.53830   0.19607   0.332367  
         C         C         0.48310   0.55483   0.20252   -0.061337           
         C         C         0.53538   0.51870   0.20221   -0.016399           
         C         C         0.46716   0.60744   0.20774   -0.075543           
         C         C         0.57068   0.53479   0.20321   -0.179219           
         O         O         0.60016   0.43108   0.19831   -0.377916           
         H         H         0.45239   0.32039   0.18255   0.103758  
         H         H         0.51016   0.33554   0.17558   0.128003  
         H         H         0.57249   0.36525   0.18121   0.134647  
         H         H         0.38825   0.49528   0.19246   0.146429  
         H         H         0.63097   0.57009   0.18794   0.278665  
         C         C         0.23156   0.41597   0.19980   0.123252  
         N         N         0.19188   0.40835   0.19537   -0.225766           
         C         C         0.14085   0.44414   0.18820   0.218813  
         C         C         0.12353   0.49641   0.18766   -0.183131           
         C         C         0.98216   0.55237   0.18311   0.337485  
         C         C         0.03662   0.51464   0.18619   -0.055701           
         C         C         0.05403   0.46225   0.18633   -0.006755           
         C         C         0.07203   0.53082   0.18553   -0.061643           
         C         C         0.10588   0.42715   0.18610   -0.182900           
         O         O         0.03265   0.40002   0.20401   -0.385202           
         H         H         0.77419   0.54301   0.17859   0.105549  
         H         H         0.84976   0.48584   0.18233   0.125004  
         H         H         0.94207   0.42475   0.18748   0.124935  
         H         H         0.88187   0.60882   0.18543   0.141505  
         H         H         0.20381   0.36943   0.19485   0.276541  
         C         C         0.76836   0.58086   0.17627   0.120769  
         N         N         0.80827   0.58784   0.17764   -0.226229           
         C         C         0.85924   0.55180   0.18390   0.219659  
         C         C         0.87647   0.49935   0.18294   -0.185083           
         C         C         0.01779   0.44387   0.19130   0.339084  
         C         C         0.96339   0.48134   0.18652   -0.056114           
         C         C         0.94600   0.53381   0.18711   -0.006988           
         C         C         0.92794   0.46497   0.18526   -0.061777           
         C         C         0.89422   0.56882   0.18684   -0.182882           
         O         O         0.96725   0.59657   0.17239   -0.384022           
         H         H         0.22547   0.45400   0.19794   0.103529  
         H         H         0.15020   0.50981   0.18667   0.124410  
         H         H         0.05783   0.57093   0.18223   0.124306  
         H         H         0.11827   0.38719   0.18797   0.141424  
         H         H         0.79631   0.62692   0.17890   0.276402  
         C         C         0.35415   0.23567   0.21251   0.114772  
         N         N         0.40093   0.19531   0.21411   -0.229166           
         C         C         0.41448   0.14412   0.21224   0.227397  
         C         C         0.37879   0.12687   0.20261   -0.177513           
         C         C         0.46267   0.98150   0.18293   0.331103  
         C         C         0.44689   0.03753   0.19458   -0.062880           
         C         C         0.48228   0.05561   0.20872   -0.019765           
         C         C         0.39520   0.07405   0.19269   -0.058850           
         C         C         0.46602   0.10859   0.21803   -0.189613           
         O         O         0.56822   0.03569   0.23143   -0.381936           
         H         H         0.67925   0.76828   0.17353   0.104928  
         H         H         0.66174   0.84625   0.19680   0.132114  
         H         H         0.63164   0.94106   0.21336   0.131053  
         H         H         0.50615   0.87920   0.17046   0.148047  
         H         H         0.42867   0.20522   0.21003   0.279306  
         C         C         0.64645   0.76383   0.17845   0.114869  
         N         N         0.59956   0.80476   0.18018   -0.229837           
         C         C         0.58587   0.85628   0.18404   0.228236  
         C         C         0.62159   0.87349   0.19357   -0.182684           
         C         C         0.53746   0.01915   0.21514   0.332694  
         C         C         0.55331   0.96298   0.20273   -0.061657           
         C         C         0.51788   0.94499   0.18911   -0.019972           
         C         C         0.60505   0.92638   0.20378   -0.060646           
         C         C         0.53424   0.89197   0.17968   -0.190135           
         O         O         0.43190   0.96505   0.16743   -0.379906           
         H         H         0.32152   0.23103   0.21730   0.104227  
         H         H         0.33866   0.15405   0.19916   0.128478  
         H         H         0.36855   0.05935   0.18229   0.131090  
         H         H         0.49418   0.12130   0.22772   0.146313  
         H         H         0.57179   0.79483   0.18465   0.279713  
         C         C         0.67833   0.60945   0.17629   0.360145  
         C         C         0.62589   0.65283   0.18528   -0.244596           
         O         O         0.68860   0.56352   0.17441   -0.457213           
         C         C         0.61342   0.70584   0.18674   0.357653  
         C         C         0.65531   0.71484   0.18008   -0.249806           
         O         O         0.56739   0.74295   0.19463   -0.462150           
         C         C         0.70829   0.67339   0.17663   0.352942  
         C         C         0.71897   0.62102   0.17407   -0.236179           
         O         O         0.74374   0.68340   0.17618   -0.464601           
         C         C         0.32107   0.38922   0.20563   0.355180  
         C         C         0.37353   0.34672   0.20068   -0.244753           
         O         O         0.31040   0.43506   0.20594   -0.458340           
         C         C         0.38650   0.29389   0.20188   0.355291  
         C         C         0.34497   0.28422   0.20740   -0.246738           
         O         O         0.43252   0.25757   0.19750   -0.462357           
         C         C         0.29200   0.32443   0.20521   0.348374  
         C         C         0.28094   0.37664   0.20560   -0.236523           
         O         O         0.25687   0.31364   0.20259   -0.461356 

