
##########################################################################
#               Crystallographic Information Format file
#               Produced by PyCifRW module
#
#  This is a CIF file.  CIF has been adopted by the International
#  Union of Crystallography as the standard for data archiving and
#  transmission.
#
#  For information on this file format, follow the CIF links at
#  http://www.iucr.org
##########################################################################

data_image0

_cell_length_a                          30.648
_cell_length_b                          24.3635
_cell_length_c                          10.7536
_cell_angle_alpha                       95.344
_cell_angle_beta                        130.484
_cell_angle_gamma                       89.9583
_symmetry_space_group_name_H-M          'P 1'
_space_group_name_Hall                  'P 1'
loop_
  _atom_site_type_symbol
  _atom_site_label
  _atom_site_fract_x
  _atom_site_fract_y
  _atom_site_fract_z
  _atom_site_charge
         C         C         0.03192   0.55946   0.95802   0.033446  
         C         C         0.05780   0.47003   0.90974   -0.133419           
         C         C         0.03568   0.38507   0.98107   0.018453  
         C         C         0.07800   0.35223   0.99033   0.082746  
         C         C         0.06370   0.29602   0.92424   -0.133961           
         C         C         0.10372   0.26382   0.93751   -0.120423           
         C         C         0.15915   0.28690   0.01297   0.057325  
         C         C         0.17402   0.34285   0.08151   -0.104112           
         C         C         0.13442   0.37455   0.07168   -0.127177           
         C         C         0.19661   0.25360   0.00457   0.042302  
         H         H         0.07713   0.44577   0.86889   0.111338  
         H         H         0.02028   0.27812   0.85880   0.113980  
         H         H         0.09175   0.22058   0.88452   0.109435  
         H         H         0.21693   0.36065   0.14116   0.113807  
         H         H         0.14704   0.41725   0.12887   0.114683  
         H         H         0.18250   0.20989   0.95433   0.082721  
         C         C         0.53149   0.06197   0.96500   0.027562  
         C         C         0.95611   0.44414   0.98569   0.030940  
         C         C         0.91701   0.53175   0.98402   -0.131188           
         C         C         0.96109   0.62039   0.99596   0.021191  
         C         C         0.92277   0.65430   0.00408   0.077717  
         C         C         0.94579   0.69765   0.13198   -0.131736           
         C         C         0.90973   0.72893   0.14131   -0.126312           
         C         C         0.84960   0.71766   0.02430   0.055871  
         C         C         0.82633   0.67542   0.89264   -0.119667           
         C         C         0.86231   0.64467   0.88251   -0.136737           
         C         C         0.81387   0.74952   0.04374   0.040037  
         H         H         0.88744   0.55428   0.98876   0.111829  
         H         H         0.99230   0.70540   0.22696   0.109367  
         H         H         0.92804   0.76187   0.24233   0.111190  
         H         H         0.77977   0.66779   0.79910   0.105785  
         H         H         0.84403   0.61296   0.77871   0.117235  
         H         H         0.83450   0.78557   0.13799   0.087188  
         C         C         0.46952   0.94520   0.03199   0.028709  
         C         C         0.95655   0.56168   0.98217   0.030499  
         C         C         0.91594   0.47557   0.98180   -0.126365           
         C         C         0.95967   0.38638   0.00027   0.026803  
         C         C         0.92160   0.35357   0.01014   0.074479  
         C         C         0.89887   0.30034   0.92127   -0.129166           
         C         C         0.86038   0.26921   0.91934   -0.121831           
         C         C         0.84214   0.29056   0.00384   0.052646  
         C         C         0.86601   0.34308   0.09705   -0.113741           
         C         C         0.90585   0.37325   0.10301   -0.132668           
         C         C         0.80126   0.25720   -0.00260  0.028158  
         H         H         0.88399   0.45436   0.97828   0.116191  
         H         H         0.90997   0.28436   0.84787   0.106078  
         H         H         0.84260   0.22861   0.84743   0.111582  
         H         H         0.85374   0.35898   0.16753   0.109592  
         H         H         0.92605   0.41216   0.18315   0.101062  
         H         H         0.79133   0.21381   0.94349   0.087750  
         C         C         0.47026   0.06298   0.04118   0.026905  
         C         C         0.03057   0.44199   0.95742   0.026987  
         C         C         0.05822   0.52618   0.90918   -0.133134           
         C         C         0.03998   0.61838   0.98931   0.013186  
         C         C         0.08422   0.65093   0.00474   0.080767  
         C         C         0.07599   0.70586   0.96608   -0.136524           
         C         C         0.11655   0.73697   0.97729   -0.122881           
         C         C         0.16704   0.71443   0.02477   0.062140  
         C         C         0.17716   0.66067   0.07159   -0.101519           
         C         C         0.13708   0.63017   0.06398   -0.126792           
         C         C         0.20399   0.74678   0.01449   0.040869  
         H         H         0.07761   0.54591   0.86700   0.113092  
         H         H         0.03674   0.72429   0.92360   0.108149  
         H         H         0.10872   0.77897   0.94447   0.108802  
         H         H         0.21683   0.64342   0.11318   0.111494  
         H         H         0.14676   0.58956   0.10612   0.112866  
         H         H         0.19336   0.78922   0.98487   0.078408  
         C         C         0.53036   0.94420   0.95415   0.027764  
         C         C         0.55392   0.97374   0.89843   -0.133177           
         C         C         0.53291   0.88608   0.96085   0.020049  
         C         C         0.57104   0.85326   0.95011   0.077380  
         C         C         0.55404   0.79814   0.87413   -0.130912           
         C         C         0.59186   0.76559   0.87673   -0.124848           
         C         C         0.64773   0.78712   0.95211   0.062952  
         C         C         0.66501   0.84215   0.02848   -0.098334           
         C         C         0.62753   0.87428   0.02809   -0.127135           
         C         C         0.68419   0.75346   0.93996   0.040841  
         H         H         0.57021   0.95055   0.84668   0.110357  
         H         H         0.51039   0.78128   0.81003   0.113400  
         H         H         0.57790   0.72309   0.81721   0.107460  
         H         H         0.70832   0.85868   0.08820   0.114123  
         H         H         0.64222   0.91609   0.09218   0.112999  
         H         H         0.66770   0.71102   0.87792   0.078086  
         C         C         0.44709   0.03359   0.09827   -0.133505           
         C         C         0.46812   0.12114   0.03522   0.018092  
         C         C         0.43021   0.15406   0.04666   0.083123  
         C         C         0.44822   0.20845   0.12827   -0.134036           
         C         C         0.41044   0.24136   0.12485   -0.123186           
         C         C         0.35372   0.22076   0.04404   0.057208  
         C         C         0.33569   0.16618   0.96360   -0.101223           
         C         C         0.37310   0.13383   0.96419   -0.129238           
         C         C         0.31752   0.25497   0.05598   0.042497  
         H         H         0.43118   0.05695   0.15106   0.110880  
         H         H         0.49250   0.22441   0.19673   0.116060  
         H         H         0.42507   0.28329   0.18868   0.107731  
         H         H         0.29196   0.15004   0.90077   0.112794  
         H         H         0.35809   0.09240   0.89740   0.115334  
         H         H         0.33327   0.29805   0.11200   0.083431  
         C         C         0.44694   0.97726   0.09449   -0.135626           
         C         C         0.46559   0.88627   0.01304   0.019433  
         C         C         0.42814   0.85245   0.02237   0.081379  
         C         C         0.44475   0.80131   0.08628   -0.129947           
         C         C         0.40796   0.76743   0.08487   -0.124846           
         C         C         0.35370   0.78383   0.02354   0.057885  
         C         C         0.33687   0.83488   0.95951   -0.102258           
         C         C         0.37307   0.86803   0.95730   -0.128695           
         C         C         0.31830   0.74899   0.03470   0.043583  
         H         H         0.43093   0.95644   0.14450   0.111142  
         H         H         0.48741   0.78884   0.14070   0.113384  
         H         H         0.42158   0.72808   0.13492   0.107439  
         H         H         0.29485   0.84750   0.91099   0.109173  
         H         H         0.35845   0.90625   0.90154   0.113772  
         H         H         0.33270   0.70834   0.07670   0.081595  
         C         C         0.55437   0.03007   0.90331   -0.134211           
         C         C         0.53629   0.12089   0.98644   0.020407  
         C         C         0.57661   0.15415   0.98703   0.076784  
         C         C         0.56370   0.20664   0.93107   -0.133558           
         C         C         0.60431   0.24031   0.94797   -0.125479           
         C         C         0.65860   0.22208   0.01524   0.060655  
         C         C         0.67127   0.16922   0.06824   -0.104567           
         C         C         0.63154   0.13657   0.05702   -0.126118           
         C         C         0.69865   0.25723   0.02250   0.031251  
         H         H         0.57101   0.05109   0.85531   0.110532  
         H         H         0.52115   0.22061   0.87203   0.117293  
         H         H         0.59371   0.28092   0.90516   0.106693  
         H         H         0.71298   0.15470   0.11986   0.108129  
         H         H         0.64323   0.09706   0.10606   0.113445  
         H         H         0.68881   0.30010   -0.00282  0.085074  
         N         N         0.24386   0.27450   0.04436   -0.191413           
         N         N         0.73390   0.77306   0.99378   -0.178154           
         N         N         0.75934   0.73580   0.95642   -0.189845           
         N         N         0.26904   0.23521   0.01064   -0.191890           
         N         N         0.77682   0.27745   0.05303   -0.168893           
         N         N         0.27212   0.76573   0.00358   -0.187316           
         N         N         0.24673   0.72698   0.03106   -0.186977           
         N         N         0.74352   0.23827   0.05026   -0.174724           
         C         C         0.00030   0.35929   0.00189   -0.176522           
         C         C         0.99383   0.53120   0.96987   -0.002757           
         H         H         0.00599   0.31637   0.02602   0.112061  
         C         C         0.49854   0.85893   0.98266   -0.169383           
         H         H         0.49770   0.81414   0.97686   0.110493  
         C         C         0.00442   0.64671   0.00865   -0.176551           
         C         C         0.99354   0.47235   0.97129   -0.005785           
         H         H         0.01059   0.69154   0.03468   0.110045  
         C         C         0.50282   0.14835   0.01466   -0.171452           
         H         H         0.50386   0.19317   0.02134   0.110718  
         C         C         0.50042   0.03308   -0.00012  -0.006783           
         C         C         0.49999   0.97402   0.99499   -0.006317           
         C         C         0.03942   0.55746   0.50258   0.028032  
         C         C         0.08860   0.47302   0.54837   -0.132312           
         C         C         0.04357   0.38210   0.52145   0.025093  
         C         C         0.08446   0.34873   0.52477   0.074673  
         C         C         0.10688   0.30401   0.61859   -0.133977           
         C         C         0.14539   0.27180   0.62426   -0.122980           
         C         C         0.16391   0.28358   0.53869   0.059622  
         C         C         0.13986   0.32687   0.43872   -0.108766           
         C         C         0.10059   0.35848   0.43124   -0.135275           
         C         C         0.20815   0.25152   0.56180   0.043083  
         H         H         0.12600   0.45286   0.58193   0.113960  
         H         H         0.09514   0.29577   0.69151   0.094721  
         H         H         0.16333   0.23804   0.69984   0.101523  
         H         H         0.15243   0.33474   0.36733   0.106113  
         H         H         0.08111   0.39062   0.34995   0.105253  
         H         H         0.22146   0.21654   0.63380   0.079645  
         C         C         0.54417   0.05510   0.51896   0.029415  
         C         C         0.95490   0.43857   0.48565   0.031960  
         C         C         0.90503   0.52276   0.43618   -0.127994           
         C         C         0.94923   0.61278   0.45893   0.027307  
         C         C         0.90585   0.64401   0.45071   0.077950  
         C         C         0.92365   0.67553   0.59465   -0.142539           
         C         C         0.88494   0.70483   0.59615   -0.133542           
         C         C         0.82686   0.70351   0.45240   0.060197  
         C         C         0.80896   0.67251   0.30690   -0.116465           
         C         C         0.84784   0.64310   0.30630   -0.136238           
         C         C         0.78782   0.73445   0.46042   -0.003690           
         H         H         0.86900   0.54360   0.41027   0.112447  
         H         H         0.96824   0.67575   0.70622   0.095314  
         H         H         0.89933   0.72833   0.70986   0.105262  
         H         H         0.76439   0.67260   0.19467   0.110998  
         H         H         0.83362   0.61984   0.19271   0.113436  
         H         H         0.80698   0.76128   0.57523   0.087713  
         C         C         0.45664   0.93495   0.48411   0.030181  
         C         C         0.94920   0.55458   0.45844   0.023096  
         C         C         0.90745   0.46722   0.44709   -0.130660           
         C         C         0.96043   0.38156   0.50954   0.017670  
         C         C         0.92056   0.34802   0.51056   0.073841  
         C         C         0.90392   0.29264   0.43665   -0.138120           
         C         C         0.86430   0.26075   0.42810   -0.117670           
         C         C         0.83864   0.28336   0.49015   0.055547  
         C         C         0.85697   0.33792   0.57099   -0.111487           
         C         C         0.89772   0.36913   0.58325   -0.135110           
         C         C         0.79413   0.25030   0.46746   0.039915  
         H         H         0.87246   0.44408   0.42569   0.114968  
         H         H         0.92013   0.27549   0.37772   0.112401  
         H         H         0.85050   0.21875   0.36512   0.108594  
         H         H         0.83897   0.35472   0.62509   0.111858  
         H         H         0.91298   0.41021   0.65204   0.103707  
         H         H         0.78415   0.20736   0.41039   0.077792  
         C         C         0.45674   0.05283   0.48963   0.031216  
         C         C         0.04321   0.44044   0.51862   0.027849  
         C         C         0.08707   0.52886   0.54208   -0.132953           
         C         C         0.03677   0.61547   0.49368   0.024411  
         C         C         0.07900   0.64936   0.50307   0.073205  
         C         C         0.10165   0.70130   0.59973   -0.137419           
         C         C         0.14195   0.73372   0.61206   -0.123012           
         C         C         0.16146   0.71527   0.52879   0.059893  
         C         C         0.13728   0.66425   0.42672   -0.110438           
         C         C         0.09674   0.63214   0.41369   -0.135372           
         C         C         0.20622   0.74868   0.55265   0.041676  
         H         H         0.12341   0.55251   0.57169   0.114973  
         H         H         0.08880   0.71499   0.67029   0.098644  
         H         H         0.16053   0.77292   0.69165   0.102975  
         H         H         0.15078   0.65099   0.35758   0.105644  
         H         H         0.07737   0.59360   0.33109   0.106868  
         H         H         0.22009   0.78956   0.62484   0.080184  
         C         C         0.54374   0.93743   0.51194   0.027809  
         C         C         0.58978   0.96986   0.54491   -0.131672           
         C         C         0.54147   0.87863   0.49969   0.022561  
         C         C         0.57941   0.84676   0.48542   0.072587  
         C         C         0.60268   0.79911   0.56467   -0.134761           
         C         C         0.63737   0.76823   0.54862   -0.129440           
         C         C         0.64943   0.78348   0.45008   0.062856  
         C         C         0.62547   0.83060   0.36781   -0.119992           
         C         C         0.59147   0.86161   0.38587   -0.133841           
         C         C         0.68655   0.75071   0.43752   -0.007913           
         H         H         0.62585   0.94913   0.57092   0.115475  
         H         H         0.59464   0.78729   0.64347   0.095212  
         H         H         0.65667   0.73272   0.61637   0.100690  
         H         H         0.63367   0.84206   0.28880   0.105909  
         H         H         0.57239   0.89706   0.31830   0.102615  
         H         H         0.70277   0.71406   0.50325   0.087075  
         C         C         0.41021   0.02024   0.45362   -0.134066           
         C         C         0.45962   0.11164   0.50415   0.021891  
         C         C         0.41996   0.14455   0.50803   0.074759  
         C         C         0.39940   0.19166   0.42418   -0.136761           
         C         C         0.36205   0.22368   0.42482   -0.124774           
         C         C         0.34310   0.20955   0.50772   0.058244  
         C         C         0.36525   0.16370   0.59764   -0.110085           
         C         C         0.40307   0.13200   0.59792   -0.136472           
         C         C         0.29974   0.24167   0.48940   0.041137  
         H         H         0.37376   0.04084   0.42555   0.114622  
         H         H         0.41142   0.20179   0.35318   0.095547  
         H         H         0.34528   0.25910   0.35581   0.102941  
         H         H         0.35227   0.15378   0.66669   0.106483  
         H         H         0.42083   0.09754   0.67070   0.104138  
         H         H         0.28682   0.27746   0.42064   0.079879  
         C         C         0.41000   0.96397   0.45007   -0.131803           
         C         C         0.46016   0.87703   0.49629   0.021218  
         C         C         0.42118   0.84396   0.50208   0.077569  
         C         C         0.40251   0.78884   0.42652   -0.137011           
         C         C         0.36415   0.75772   0.42508   -0.125776           
         C         C         0.34256   0.78043   0.49929   0.061192  
         C         C         0.36363   0.83441   0.58371   -0.110772           
         C         C         0.40214   0.86523   0.58535   -0.134365           
         C         C         0.29852   0.74828   0.48148   0.041370  
         H         H         0.37316   0.94049   0.41794   0.115970  
         H         H         0.41673   0.77124   0.36261   0.096763  
         H         H         0.34842   0.71607   0.35960   0.103643  
         H         H         0.34936   0.85116   0.64834   0.108320  
         H         H         0.41895   0.90616   0.65494   0.104876  
         H         H         0.28665   0.70571   0.42028   0.078197  
         C         C         0.59002   0.02608   0.54840   -0.132146           
         C         C         0.54242   0.11335   0.51494   0.021839  
         C         C         0.58287   0.14739   0.51728   0.079360  
         C         C         0.60600   0.19939   0.61342   -0.137802           
         C         C         0.64390   0.23262   0.61772   -0.128452           
         C         C         0.66040   0.21494   0.52601   0.055048  
         C         C         0.63605   0.16363   0.42549   -0.109778           
         C         C         0.59804   0.13065   0.42113   -0.136818           
         C         C         0.70262   0.24926   0.54076   0.035843  
         H         H         0.62629   0.04958   0.57730   0.114532  
         H         H         0.59531   0.21258   0.68950   0.096261  
         H         H         0.66267   0.27195   0.69670   0.104535  
         H         H         0.64719   0.15091   0.35007   0.105976  
         H         H         0.57847   0.09197   0.33939   0.105477  
         H         H         0.71571   0.29080   0.60900   0.083513  
         N         N         0.23301   0.26427   0.50507   -0.186936           
         N         N         0.70001   0.76385   0.35154   -0.112532           
         N         N         0.73286   0.73148   0.33835   -0.127541           
         N         N         0.27467   0.22812   0.54511   -0.183674           
         N         N         0.76605   0.27046   0.51158   -0.182434           
         N         N         0.27199   0.76888   0.53041   -0.182155           
         N         N         0.23036   0.73044   0.49416   -0.181957           
         N         N         0.72606   0.23111   0.48001   -0.186618           
         C         C         0.00369   0.35523   0.52314   -0.178663           
         C         C         0.99516   0.52674   0.48380   -0.002590           
         H         H         0.00585   0.31118   0.53342   0.108235  
         C         C         0.50147   0.85067   0.49920   -0.177079           
         H         H         0.50229   0.80607   0.49984   0.104514  
         C         C         0.99280   0.64166   0.47765   -0.187166           
         C         C         0.99764   0.46844   0.49548   -0.008359           
         H         H         0.99140   0.68612   0.47436   0.108879  
         C         C         0.50134   0.13978   0.51216   -0.182450           
         H         H         0.50190   0.18456   0.51661   0.107959  
         C         C         0.50031   0.02456   0.50234   -0.005212           
         C         C         0.50017   0.96557   0.49929   -0.001734 

