
##########################################################################
#               Crystallographic Information Format file
#               Produced by PyCifRW module
#
#  This is a CIF file.  CIF has been adopted by the International
#  Union of Crystallography as the standard for data archiving and
#  transmission.
#
#  For information on this file format, follow the CIF links at
#  http://www.iucr.org
##########################################################################

data_image0

_cell_length_a                          22.5562
_cell_length_b                          22.7553
_cell_length_c                          7.8731
_cell_angle_alpha                       114.504
_cell_angle_beta                        59.258
_cell_angle_gamma                       120.251
_symmetry_space_group_name_H-M          'P 1'
_space_group_name_Hall                  'P 1'
loop_
  _atom_site_type_symbol
  _atom_site_label
  _atom_site_fract_x
  _atom_site_fract_y
  _atom_site_fract_z
  _atom_site_charge
         O         O         0.29703   0.53278   0.22673   -0.464995           
         N         N         0.41926   0.56480   0.24974   -0.217830           
         C         C         0.31488   0.59680   0.23940   0.355735  
         C         C         0.38530   0.64897   0.25375   -0.253761           
         C         C         0.43534   0.63087   0.25607   0.109738  
         C         C         0.46164   0.53503   0.24178   0.117950  
         C         C         0.43143   0.46243   0.22400   -0.282733           
         C         C         0.53358   0.57030   0.24297   0.197801  
         H         H         0.37679   0.43192   0.21674   0.168863  
         H         H         0.48785   0.67123   0.26352   0.108620  
         H         H         0.36628   0.53286   0.24190   0.270623  
         O         O         0.46961   0.76673   0.27346   -0.462061           
         N         N         0.44005   0.86095   0.27109   -0.217034           
         C         C         0.40730   0.72214   0.26332   0.356270  
         C         C         0.35623   0.74246   0.26090   -0.240331           
         C         C         0.37480   0.81096   0.26340   0.118430  
         C         C         0.46816   0.93114   0.27043   0.116011  
         C         C         0.54253   0.97162   0.25064   -0.287842           
         C         C         0.42738   0.96651   0.29409   0.191348  
         H         H         0.57690   0.94807   0.23672   0.167603  
         H         H         0.33565   0.82357   0.25699   0.105750  
         H         H         0.47171   0.83896   0.27167   0.271830  
         O         O         0.24051   0.71128   0.24947   -0.459367           
         N         N         0.14803   0.58508   0.22728   -0.217954           
         C         C         0.28443   0.69210   0.25037   0.357234  
         C         C         0.26503   0.61953   0.23876   -0.247699           
         C         C         0.19771   0.56881   0.22728   0.116504  
         C         C         0.07678   0.54314   0.22910   0.115896  
         C         C         0.03624   0.57347   0.22642   -0.285328           
         C         C         0.03959   0.47273   0.24245   0.193663  
         H         H         0.06160   0.62768   0.21566   0.170704  
         H         H         0.18561   0.51526   0.21813   0.108571  
         H         H         0.16969   0.63917   0.23313   0.271130  
         O         O         0.70546   0.46996   0.24284   -0.464835           
         N         N         0.58295   0.43537   0.21947   -0.219826           
         C         C         0.68733   0.40679   0.24004   0.354507  
         C         C         0.61624   0.35379   0.23217   -0.248564           
         C         C         0.56621   0.37025   0.22372   0.105367  
         C         C         0.54129   0.46428   0.22018   0.124723  
         C         C         0.57201   0.53662   0.23428   -0.284543           
         C         C         0.47090   0.42840   0.20856   0.193809  
         H         H         0.62714   0.56701   0.23834   0.169913  
         H         H         0.51336   0.32960   0.21982   0.110012  
         H         H         0.63626   0.46779   0.22542   0.269563  
         O         O         0.53058   0.23677   0.23650   -0.461745           
         N         N         0.56160   0.14557   0.25327   -0.216789           
         C         C         0.59402   0.28185   0.23631   0.352410  
         C         C         0.64607   0.26325   0.24054   -0.241642           
         C         C         0.62788   0.19605   0.24910   0.120345  
         C         C         0.53344   0.07646   0.26471   0.116228  
         C         C         0.45855   0.03623   0.28876   -0.285162           
         C         C         0.57339   0.04182   0.25009   0.194801  
         H         H         0.42411   0.06001   0.30408   0.168423  
         H         H         0.66826   0.18491   0.25465   0.106894  
         H         H         0.52876   0.16589   0.25171   0.273496  
         O         O         0.76295   0.29715   0.24938   -0.459865           
         N         N         0.85521   0.42277   0.25589   -0.217033           
         C         C         0.71846   0.31451   0.24422   0.357949  
         C         C         0.73761   0.38596   0.24558   -0.243867           
         C         C         0.80539   0.43754   0.25160   0.114157  
         C         C         0.92681   0.46503   0.25067   0.115595  
         C         C         0.96741   0.43468   0.25278   -0.284076           
         C         C         0.96391   0.53547   0.23733   0.193289  
         H         H         0.94191   0.38053   0.26426   0.169753  
         H         H         0.81772   0.49030   0.25246   0.112496  
         H         H         0.83319   0.36908   0.25696   0.270592  
         F         F         0.56847   0.64016   0.25023   -0.118701           
         F         F         0.44026   0.35739   0.17678   -0.118293           
         F         F         0.35388   0.93166   0.32493   -0.119152           
         F         F         0.07456   0.43995   0.24973   -0.119052           
         F         F         0.92847   0.56861   0.23346   -0.122251           
         F         F         0.64563   0.07727   0.23325   -0.121368           
         O         O         0.29454   0.52878   0.73247   -0.462081           
         N         N         0.41705   0.56024   0.75292   -0.218324           
         C         C         0.31315   0.59257   0.74105   0.352052  
         C         C         0.38386   0.64464   0.75420   -0.249157           
         C         C         0.43348   0.62638   0.75805   0.109110  
         C         C         0.45829   0.53022   0.74953   0.120850  
         C         C         0.42623   0.45810   0.74067   -0.283474           
         C         C         0.53007   0.56507   0.75214   0.195938  
         H         H         0.37034   0.42829   0.74151   0.170059  
         H         H         0.48588   0.66673   0.76633   0.108337  
         H         H         0.36378   0.52851   0.74692   0.269963  
         O         O         0.46844   0.76239   0.77096   -0.461959           
         N         N         0.43792   0.85689   0.77161   -0.211784           
         C         C         0.40605   0.71779   0.76184   0.355293  
         C         C         0.35492   0.73806   0.75921   -0.240962           
         C         C         0.37289   0.80666   0.76349   0.121197  
         C         C         0.46673   0.92698   0.76851   0.116004  
         C         C         0.53798   0.96838   0.77418   -0.286707           
         C         C         0.43132   0.96116   0.75945   0.192169  
         H         H         0.56830   0.94553   0.78328   0.163952  
         H         H         0.33331   0.81925   0.75902   0.105906  
         H         H         0.46989   0.83517   0.77161   0.273553  
         O         O         0.24006   0.70655   0.74248   -0.461566           
         N         N         0.14754   0.58087   0.72210   -0.220056           
         C         C         0.28350   0.68757   0.74665   0.358071  
         C         C         0.26387   0.61517   0.73711   -0.246689           
         C         C         0.19644   0.56453   0.72563   0.116085  
         C         C         0.07609   0.53934   0.72509   0.118655  
         C         C         0.03576   0.57041   0.72432   -0.286472           
         C         C         0.03891   0.46862   0.73538   0.194549  
         H         H         0.06151   0.62475   0.71444   0.169896  
         H         H         0.18356   0.51108   0.71983   0.112004  
         H         H         0.16977   0.63495   0.72591   0.270597  
         O         O         0.70161   0.46534   0.74771   -0.463074           
         N         N         0.57881   0.42929   0.72607   -0.219528           
         C         C         0.68493   0.40218   0.74169   0.353884  
         C         C         0.61441   0.34834   0.73234   -0.251150           
         C         C         0.56333   0.36408   0.72589   0.110511  
         C         C         0.53669   0.45855   0.73033   0.115800  
         C         C         0.56846   0.53080   0.74085   -0.279309           
         C         C         0.46445   0.42389   0.73094   0.198527  
         H         H         0.62383   0.56089   0.74350   0.169406  
         H         H         0.51086   0.32293   0.72071   0.107522  
         H         H         0.63219   0.46194   0.73244   0.267678  
         O         O         0.53102   0.23048   0.73176   -0.460429           
         N         N         0.56411   0.14147   0.74881   -0.214479           
         C         C         0.59384   0.27664   0.73432   0.353342  
         C         C         0.64668   0.25939   0.73981   -0.241624           
         C         C         0.62974   0.19245   0.74795   0.119301  
         C         C         0.53540   0.07218   0.75856   0.119396  
         C         C         0.46399   0.03095   0.75477   -0.287680           
         C         C         0.57080   0.03827   0.76881   0.191283  
         H         H         0.43389   0.05376   0.74446   0.163636  
         H         H         0.67034   0.18203   0.75511   0.108200  
         H         H         0.53158   0.16159   0.74424   0.269995  
         O         O         0.76390   0.29489   0.74812   -0.460359           
         N         N         0.85440   0.42046   0.75403   -0.217408           
         C         C         0.71864   0.31149   0.74364   0.357055  
         C         C         0.73649   0.38260   0.74552   -0.245146           
         C         C         0.80409   0.43488   0.75091   0.119359  
         C         C         0.92600   0.46248   0.74832   0.116157  
         C         C         0.96638   0.43142   0.74849   -0.286294           
         C         C         0.96350   0.53280   0.73404   0.194806  
         H         H         0.94056   0.37707   0.75812   0.170497  
         H         H         0.81563   0.48746   0.75226   0.107110  
         H         H         0.83242   0.36665   0.75529   0.268493  
         F         F         0.56427   0.63540   0.76539   -0.119877           
         F         F         0.42883   0.35408   0.72504   -0.120336           
         F         F         0.36267   0.92532   0.75030   -0.117659           
         F         F         0.07444   0.43434   0.73359   -0.121535           
         F         F         0.92867   0.56561   0.72556   -0.122117           
         F         F         0.63996   0.07449   0.77504   -0.119858 

