
##########################################################################
#               Crystallographic Information Format file
#               Produced by PyCifRW module
#
#  This is a CIF file.  CIF has been adopted by the International
#  Union of Crystallography as the standard for data archiving and
#  transmission.
#
#  For information on this file format, follow the CIF links at
#  http://www.iucr.org
##########################################################################

data_image0

_cell_length_a                          30.0467
_cell_length_b                          30.3387
_cell_length_c                          7.94117
_cell_angle_alpha                       62.0049
_cell_angle_beta                        116.702
_cell_angle_gamma                       120.253
_symmetry_space_group_name_H-M          'P 1'
_space_group_name_Hall                  'P 1'
loop_
  _atom_site_type_symbol
  _atom_site_label
  _atom_site_fract_x
  _atom_site_fract_y
  _atom_site_fract_z
  _atom_site_charge
         N         N         0.41057   0.60765   0.22430   -0.201627           
         N         N         0.39971   0.81045   0.26961   -0.221063           
         N         N         0.19100   0.59114   0.25475   -0.216252           
         N         N         0.58965   0.39859   0.28172   -0.212187           
         N         N         0.60027   0.19011   0.28153   -0.212964           
         N         N         0.80312   0.41359   0.20523   -0.214128           
         C         C         0.36169   0.59784   0.22022   0.107484  
         C         C         0.43125   0.57615   0.21854   0.103321  
         C         C         0.40564   0.52026   0.24343   0.211310  
         C         C         0.43446   0.49463   0.24907   -0.241593           
         C         C         0.48667   0.52128   0.22986   0.082967  
         C         C         0.51049   0.57715   0.19773   -0.151331           
         C         C         0.48300   0.60336   0.19222   -0.158281           
         C         C         0.41174   0.77202   0.27982   0.101950  
         C         C         0.43102   0.86321   0.27439   0.095754  
         C         C         0.48435   0.89231   0.25916   0.206670  
         C         C         0.51019   0.94535   0.26421   -0.257509           
         C         C         0.48578   0.97234   0.27652   0.071911  
         C         C         0.43190   0.94327   0.28230   -0.163172           
         C         C         0.40599   0.89025   0.28421   -0.171853           
         C         C         0.22757   0.64140   0.23684   0.083513  
         C         C         0.13742   0.56902   0.25479   0.098418  
         C         C         0.11109   0.59503   0.26549   0.197898  
         C         C         0.05648   0.56775   0.25612   -0.249813           
         C         C         0.02653   0.51552   0.24238   0.072732  
         C         C         0.05387   0.49011   0.23583   -0.153392           
         C         C         0.10768   0.51641   0.24256   -0.161916           
         C         C         0.63664   0.41045   0.26106   0.107389  
         C         C         0.56837   0.43177   0.27305   0.106248  
         C         C         0.59892   0.48217   0.30872   0.210973  
         C         C         0.57091   0.51031   0.29301   -0.247917           
         C         C         0.51477   0.49099   0.24337   0.079803  
         C         C         0.48575   0.44063   0.21089   -0.154311           
         C         C         0.51208   0.41178   0.22627   -0.162554           
         C         C         0.58994   0.22562   0.30002   0.114295  
         C         C         0.56881   0.13737   0.27796   0.113142  
         C         C         0.51411   0.10964   0.27710   0.202539  
         C         C         0.48960   0.05574   0.28457   -0.241054           
         C         C         0.51514   0.02833   0.28053   0.071093  
         C         C         0.56866   0.05744   0.27104   -0.151228           
         C         C         0.59437   0.11022   0.27202   -0.167981           
         C         C         0.76750   0.36280   0.24118   0.083467  
         C         C         0.85746   0.43463   0.21578   0.095247  
         C         C         0.88413   0.40914   0.20467   0.202041  
         C         C         0.93911   0.43640   0.21866   -0.251340           
         C         C         0.96911   0.48823   0.23660   0.072707  
         C         C         0.94104   0.51285   0.24298   -0.150763           
         C         C         0.88712   0.48638   0.23456   -0.164275           
         H         H         0.32815   0.56089   0.20227   0.087805  
         N         N         0.35497   0.48795   0.27653   -0.604879           
         H         H         0.43701   0.64575   0.24050   0.268476  
         H         H         0.50109   0.64655   0.16579   0.126119  
         H         H         0.41542   0.45128   0.27781   0.105629  
         H         H         0.54985   0.60014   0.17154   0.107624  
         H         H         0.34044   0.45223   0.25375   0.291114  
         H         H         0.32681   0.50465   0.19601   0.291092  
         H         H         0.45302   0.77746   0.31165   0.102463  
         N         N         0.51284   0.86926   0.24751   -0.608185           
         H         H         0.35804   0.79599   0.25037   0.266843  
         H         H         0.36492   0.86793   0.29480   0.131049  
         H         H         0.55083   0.96639   0.25054   0.111132  
         H         H         0.41030   0.96109   0.29385   0.102527  
         H         H         0.54420   0.89844   0.19160   0.298989  
         H         H         0.49003   0.84487   0.16021   0.285100  
         H         H         0.21772   0.67304   0.22303   0.096244  
         N         N         0.13645   0.64720   0.27932   -0.606425           
         H         H         0.20756   0.56682   0.26026   0.267166  
         H         H         0.12793   0.49657   0.23384   0.121810  
         H         H         0.03781   0.58840   0.26878   0.112484  
         H         H         0.03330   0.44997   0.22216   0.107788  
         H         H         0.11512   0.65442   0.32692   0.298004  
         H         H         0.17487   0.65570   0.36833   0.286950  
         H         H         0.66597   0.45139   0.24045   0.094079  
         N         N         0.65521   0.50515   0.35527   -0.617603           
         H         H         0.56551   0.35779   0.29389   0.268425  
         H         H         0.48960   0.37330   0.19724   0.120948  
         H         H         0.59469   0.54755   0.33064   0.118268  
         H         H         0.44223   0.42465   0.16730   0.101472  
         H         H         0.67525   0.47914   0.44252   0.292289  
         H         H         0.67042   0.53401   0.41926   0.293841  
         H         H         0.55206   0.21433   0.32340   0.093631  
         N         N         0.48435   0.13532   0.26729   -0.612793           
         H         H         0.63994   0.20723   0.26961   0.265230  
         H         H         0.63552   0.13245   0.26447   0.126530  
         H         H         0.44799   0.03483   0.28896   0.106634  
         H         H         0.59028   0.03978   0.25798   0.105219  
         H         H         0.44587   0.10992   0.26544   0.288060  
         H         H         0.48510   0.16904   0.14673   0.298183  
         H         H         0.77809   0.33007   0.26991   0.098540  
         N         N         0.85832   0.35743   0.18644   -0.609025           
         H         H         0.78586   0.43952   0.18069   0.268331  
         H         H         0.86649   0.50543   0.24527   0.121670  
         H         H         0.95777   0.41565   0.20692   0.112015  
         H         H         0.96148   0.55232   0.26091   0.106822  
         H         H         0.81931   0.34776   0.10296   0.287927  
         H         H         0.87859   0.35023   0.13437   0.298278  
         C         C         0.61173   0.31578   0.28989   0.355231  
         C         C         0.64910   0.37155   0.26259   -0.257027           
         C         C         0.68054   0.29332   0.27496   0.354473  
         C         C         0.62798   0.27744   0.29243   -0.241857           
         C         C         0.69984   0.38957   0.22676   0.344175  
         C         C         0.71681   0.34947   0.25023   -0.249388           
         C         C         0.38968   0.68606   0.25583   0.353429  
         C         C         0.34949   0.63416   0.23617   -0.259317           
         C         C         0.31676   0.70980   0.23474   0.353230  
         C         C         0.37221   0.72294   0.25677   -0.244347           
         C         C         0.29492   0.61663   0.23892   0.344569  
         C         C         0.27903   0.65537   0.23324   -0.247153           
         O         O         0.56518   0.30120   0.30346   -0.484860           
         O         O         0.69525   0.26045   0.27576   -0.474093           
         O         O         0.72857   0.43990   0.17112   -0.490339           
         O         O         0.43850   0.69974   0.26962   -0.480714           
         O         O         0.30165   0.74356   0.22510   -0.476288           
         O         O         0.26180   0.56845   0.24612   -0.492119           
         N         N         0.41199   0.60261   0.72473   -0.207884           
         N         N         0.40196   0.80605   0.76884   -0.220134           
         N         N         0.19173   0.58821   0.74643   -0.214874           
         N         N         0.59126   0.39378   0.78462   -0.207747           
         N         N         0.60236   0.18586   0.78188   -0.214677           
         N         N         0.80404   0.41220   0.69349   -0.218400           
         C         C         0.36256   0.59333   0.71493   0.107102  
         C         C         0.43312   0.57147   0.71944   0.107235  
         C         C         0.40782   0.51567   0.74367   0.211051  
         C         C         0.43661   0.49038   0.74756   -0.236867           
         C         C         0.48872   0.51737   0.72765   0.076062  
         C         C         0.51244   0.57311   0.69717   -0.151609           
         C         C         0.48485   0.59908   0.69254   -0.159943           
         C         C         0.41377   0.76746   0.77956   0.107274  
         C         C         0.43387   0.85856   0.77607   0.096590  
         C         C         0.48733   0.88758   0.76188   0.207190  
         C         C         0.51219   0.94102   0.76260   -0.259201           
         C         C         0.48772   0.96746   0.77817   0.070981  
         C         C         0.43431   0.93790   0.78928   -0.160194           
         C         C         0.40866   0.88524   0.78710   -0.168982           
         C         C         0.22909   0.63801   0.73333   0.087318  
         C         C         0.13874   0.56583   0.75251   0.101851  
         C         C         0.11276   0.59134   0.76772   0.199906  
         C         C         0.05856   0.56375   0.76385   -0.249537           
         C         C         0.02816   0.51207   0.74561   0.072050  
         C         C         0.05522   0.48692   0.73615   -0.151702           
         C         C         0.10879   0.51326   0.74059   -0.164481           
         C         C         0.63790   0.40576   0.76219   0.105524  
         C         C         0.57046   0.42750   0.77398   0.102384  
         C         C         0.60105   0.47862   0.80378   0.210508  
         C         C         0.57303   0.50700   0.78563   -0.246526           
         C         C         0.51699   0.48748   0.73998   0.085421  
         C         C         0.48815   0.43637   0.71438   -0.157506           
         C         C         0.51433   0.40719   0.73196   -0.158489           
         C         C         0.59196   0.22281   0.79067   0.106584  
         C         C         0.57098   0.13317   0.77714   0.110709  
         C         C         0.51587   0.10595   0.77136   0.212171  
         C         C         0.49108   0.05211   0.77628   -0.247351           
         C         C         0.51703   0.02364   0.78139   0.069847  
         C         C         0.57141   0.05211   0.78151   -0.158829           
         C         C         0.59711   0.10521   0.77910   -0.165100           
         C         C         0.76913   0.36095   0.73311   0.079418  
         C         C         0.85868   0.43344   0.70654   0.095553  
         C         C         0.88576   0.40640   0.70624   0.198256  
         C         C         0.94114   0.43271   0.72753   -0.250826           
         C         C         0.97069   0.48534   0.73820   0.070266  
         C         C         0.94242   0.51192   0.73210   -0.151301           
         C         C         0.88790   0.48622   0.71726   -0.163093           
         H         H         0.32876   0.55741   0.68746   0.087934  
         N         N         0.35756   0.48286   0.78071   -0.606182           
         H         H         0.43821   0.64046   0.74324   0.268392  
         H         H         0.50253   0.64226   0.66557   0.126832  
         H         H         0.41753   0.44715   0.77348   0.106272  
         H         H         0.55177   0.59628   0.67110   0.107961  
         H         H         0.34122   0.44841   0.74655   0.290766  
         H         H         0.33026   0.49999   0.71462   0.288223  
         H         H         0.45529   0.77300   0.81476   0.100240  
         N         N         0.51673   0.86467   0.75538   -0.603373           
         H         H         0.36017   0.79195   0.74743   0.266787  
         H         H         0.36774   0.86269   0.79840   0.127809  
         H         H         0.55232   0.96301   0.74375   0.114106  
         H         H         0.41289   0.95525   0.80496   0.104957  
         H         H         0.49489   0.83884   0.67406   0.291261  
         H         H         0.54885   0.89352   0.70359   0.298684  
         H         H         0.22067   0.67002   0.72449   0.097408  
         N         N         0.13769   0.64393   0.77685   -0.609599           
         H         H         0.20777   0.56396   0.74857   0.267838  
         H         H         0.12845   0.49370   0.72761   0.120601  
         H         H         0.04036   0.58385   0.78211   0.111596  
         H         H         0.03409   0.44738   0.71734   0.106661  
         H         H         0.17577   0.65307   0.86772   0.288502  
         H         H         0.11591   0.65165   0.82039   0.298354  
         H         H         0.66709   0.44657   0.74391   0.093491  
         N         N         0.65728   0.50232   0.84514   -0.615362           
         H         H         0.56656   0.35334   0.79410   0.269640  
         H         H         0.49146   0.36792   0.70931   0.120577  
         H         H         0.59703   0.54480   0.81888   0.114206  
         H         H         0.44471   0.41996   0.67599   0.099808  
         H         H         0.67237   0.53250   0.90272   0.294023  
         H         H         0.67765   0.47671   0.93864   0.287702  
         H         H         0.55344   0.21297   0.80424   0.091654  
         N         N         0.48623   0.13085   0.76610   -0.604815           
         H         H         0.64264   0.20249   0.77910   0.264686  
         H         H         0.63892   0.12678   0.77741   0.127120  
         H         H         0.44897   0.03203   0.77342   0.109587  
         H         H         0.59377   0.03343   0.77882   0.104503  
         H         H         0.44683   0.10661   0.75173   0.290296  
         H         H         0.49001   0.16778   0.66163   0.296976  
         H         H         0.78036   0.32832   0.76515   0.096256  
         N         N         0.86003   0.35420   0.69226   -0.607620           
         H         H         0.78643   0.43777   0.66950   0.269347  
         H         H         0.86678   0.50658   0.71813   0.124355  
         H         H         0.96085   0.41129   0.72535   0.113992  
         H         H         0.96266   0.55245   0.74192   0.108929  
         H         H         0.82131   0.34507   0.60599   0.288433  
         H         H         0.88112   0.34606   0.64689   0.300903  
         C         C         0.61312   0.31231   0.78227   0.359932  
         C         C         0.65032   0.36761   0.75898   -0.256977           
         C         C         0.68304   0.29018   0.77298   0.353490  
         C         C         0.63006   0.27444   0.78530   -0.240814           
         C         C         0.70077   0.38648   0.72085   0.344565  
         C         C         0.71843   0.34686   0.74299   -0.248795           
         C         C         0.39092   0.68122   0.75375   0.352527  
         C         C         0.35045   0.62948   0.73262   -0.256075           
         C         C         0.31853   0.70572   0.73088   0.355116  
         C         C         0.37403   0.71858   0.75425   -0.244510           
         C         C         0.29573   0.61249   0.73318   0.346127  
         C         C         0.28027   0.65145   0.72849   -0.249763           
         O         O         0.56654   0.29743   0.79586   -0.488459           
         O         O         0.69802   0.25633   0.78246   -0.476191           
         O         O         0.72875   0.43699   0.66780   -0.492099           
         O         O         0.43970   0.69426   0.76859   -0.481963           
         O         O         0.30384   0.73983   0.72126   -0.475752           
         O         O         0.26232   0.56446   0.73968   -0.492932 

