
##########################################################################
#               Crystallographic Information Format file
#               Produced by PyCifRW module
#
#  This is a CIF file.  CIF has been adopted by the International
#  Union of Crystallography as the standard for data archiving and
#  transmission.
#
#  For information on this file format, follow the CIF links at
#  http://www.iucr.org
##########################################################################

data_image0

_cell_length_a                          22.7361
_cell_length_b                          22.6659
_cell_length_c                          7.91312
_cell_angle_alpha                       95.446
_cell_angle_beta                        115.473
_cell_angle_gamma                       120.412
_symmetry_space_group_name_H-M          'P 1'
_space_group_name_Hall                  'P 1'
loop_
  _atom_site_type_symbol
  _atom_site_label
  _atom_site_fract_x
  _atom_site_fract_y
  _atom_site_fract_z
  _atom_site_charge
         F         F         0.43146   0.35680   0.98292   -0.079288           
         F         F         0.36277   0.42230   0.99153   -0.079934           
         O         O         0.70677   0.46767   0.98017   -0.445589           
         N         N         0.58157   0.43602   0.98176   -0.197794           
         C         C         0.68918   0.40542   0.98650   0.349381  
         C         C         0.61712   0.35331   0.98579   -0.236672           
         C         C         0.56635   0.37057   0.98416   0.126309  
         C         C         0.54023   0.46386   0.98907   0.022408  
         C         C         0.43162   0.46041   0.99173   0.084101  
         C         C         0.46788   0.42661   0.98686   0.087105  
         H         H         0.63577   0.46931   0.98392   0.269262  
         H         H         0.51390   0.33010   0.98667   0.110928  
         F         F         0.64314   0.07461   0.00008   -0.083216           
         F         F         0.57742   0.93715   0.98348   -0.071367           
         O         O         0.53312   0.23731   0.99488   -0.444462           
         N         N         0.56723   0.14581   0.01313   -0.205693           
         C         C         0.59608   0.28166   0.99420   0.359273  
         C         C         0.65018   0.26339   0.00627   -0.241265           
         C         C         0.63409   0.19649   0.01713   0.123185  
         C         C         0.53970   0.07531   0.01207   0.017525  
         C         C         0.54073   0.96770   0.99484   0.091478  
         C         C         0.57491   0.03982   0.00360   0.082320  
         H         H         0.53333   0.16612   0.00528   0.270778  
         H         H         0.67661   0.18544   0.02882   0.112990  
         F         F         0.93470   0.56859   0.00774   -0.077621           
         F         F         0.06854   0.63707   0.99232   -0.072261           
         O         O         0.77074   0.29757   0.02416   -0.449383           
         N         N         0.86108   0.41960   0.00507   -0.217039           
         C         C         0.72363   0.31426   0.00959   0.352887  
         C         C         0.74145   0.38447   -0.00375  -0.243273           
         C         C         0.80944   0.43447   0.99370   0.109941  
         C         C         0.93095   0.46110   0.00321   0.022912  
         C         C         0.03812   0.56954   0.00198   0.093843  
         C         C         0.96768   0.53314   0.00408   0.088453  
         H         H         0.84060   0.36677   0.01327   0.266831  
         H         H         0.82011   0.48578   0.98096   0.111195  
         F         F         0.57196   0.64048   0.00832   -0.076995           
         F         F         0.64025   0.57464   0.99232   -0.079492           
         O         O         0.29881   0.53024   0.00979   -0.447515           
         N         N         0.42276   0.56127   0.00590   -0.201447           
         C         C         0.31789   0.59351   0.00952   0.351010  
         C         C         0.39088   0.64621   0.01433   -0.235602           
         C         C         0.44098   0.62842   0.01408   0.121216  
         C         C         0.46392   0.53321   -0.00019  0.020262  
         C         C         0.57225   0.53662   -0.00402  0.081771  
         C         C         0.53625   0.57049   0.00276   0.087691  
         H         H         0.36753   0.52794   0.00000   0.271308  
         H         H         0.49518   0.66967   0.01901   0.109954  
         F         F         0.36603   0.92562   0.00837   -0.084084           
         F         F         0.43152   0.06307   0.02464   -0.071640           
         O         O         0.47713   0.76376   0.01507   -0.442692           
         N         N         0.44254   0.85512   -0.00346  -0.206989           
         C         C         0.41347   0.71890   0.01261   0.357863  
         C         C         0.35960   0.73731   0.00218   -0.237455           
         C         C         0.37563   0.80418   0.99231   0.117293  
         C         C         0.46945   0.92520   0.99578   0.019622  
         C         C         0.46825   0.03267   0.01242   0.090719  
         C         C         0.43406   0.96053   0.00382   0.083143  
         H         H         0.47686   0.83531   0.00511   0.270981  
         H         H         0.33284   0.81492   0.98000   0.112211  
         F         F         0.07179   0.42864   0.99241   -0.077470           
         F         F         0.93808   0.36063   0.00791   -0.073555           
         O         O         0.23946   0.70324   0.98756   -0.450077           
         N         N         0.14820   0.57993   0.00231   -0.209305           
         C         C         0.28587   0.68609   -0.00201  0.352741  
         C         C         0.26678   0.61504   0.00503   -0.245246           
         C         C         0.19848   0.56442   0.00618   0.109097  
         C         C         0.07788   0.53780   0.00295   0.013675  
         C         C         0.97016   0.42900   0.00269   0.090014  
         C         C         0.04063   0.46541   0.00061   0.092633  
         H         H         0.16920   0.63332   -0.00211  0.267218  
         H         H         0.18659   0.51201   0.01163   0.113954  
         F         F         0.42564   0.35441   0.48356   -0.080386           
         F         F         0.35683   0.41955   0.49944   -0.080119           
         O         O         0.69932   0.46594   0.48334   -0.447012           
         N         N         0.57521   0.43462   0.48631   -0.200184           
         C         C         0.68177   0.40362   0.48962   0.351568  
         C         C         0.60950   0.35112   0.48767   -0.233698           
         C         C         0.55873   0.36843   0.48522   0.122840  
         C         C         0.53338   0.46217   0.49084   0.021184  
         C         C         0.42435   0.45782   0.49380   0.081620  
         C         C         0.46094   0.42440   0.48783   0.089548  
         H         H         0.62994   0.46783   0.49008   0.269649  
         H         H         0.50538   0.32776   0.48416   0.108934  
         F         F         0.63685   0.07157   0.50086   -0.085331           
         F         F         0.57408   0.93699   0.50778   -0.071810           
         O         O         0.52578   0.23466   0.49596   -0.442613           
         N         N         0.56007   0.14319   0.50791   -0.206258           
         C         C         0.58855   0.27932   0.49493   0.356899  
         C         C         0.64272   0.26133   0.50531   -0.238832           
         C         C         0.62716   0.19445   0.51395   0.117432  
         C         C         0.53271   0.07296   0.50728   0.016987  
         C         C         0.53492   0.96649   0.50387   0.088657  
         C         C         0.56878   0.03776   0.50561   0.086083  
         H         H         0.52590   0.16307   0.50073   0.269007  
         H         H         0.67014   0.18404   0.52576   0.113165  
         F         F         0.92727   0.56779   0.50687   -0.077509           
         F         F         0.05716   0.63449   0.48465   -0.073388           
         O         O         0.76218   0.29520   0.51798   -0.450423           
         N         N         0.85222   0.41720   0.50254   -0.208413           
         C         C         0.71574   0.31239   0.50776   0.353739  
         C         C         0.73388   0.38287   0.49821   -0.247003           
         C         C         0.80204   0.43311   0.49636   0.109822  
         C         C         0.92240   0.45907   0.50198   0.010453  
         C         C         0.02853   0.56757   0.49759   0.090651  
         C         C         0.95865   0.53100   0.50152   0.092305  
         H         H         0.83077   0.36365   0.50809   0.267847  
         H         H         0.81382   0.48523   0.48817   0.113825  
         F         F         0.56260   0.63711   0.50032   -0.079483           
         F         F         0.63407   0.57434   0.49982   -0.080859           
         O         O         0.28992   0.52809   0.51050   -0.448118           
         N         N         0.41419   0.55838   0.50572   -0.198290           
         C         C         0.30914   0.59128   0.51008   0.352305  
         C         C         0.38161   0.64338   0.51207   -0.236249           
         C         C         0.43116   0.62497   0.50984   0.123310  
         C         C         0.45538   0.53030   0.49845   0.023423  
         C         C         0.56478   0.53481   0.49744   0.084336  
         C         C         0.52738   0.56767   0.49939   0.088479  
         H         H         0.35981   0.52505   0.50224   0.272317  
         H         H         0.48436   0.66552   0.51009   0.110507  
         F         F         0.35681   0.92518   0.49944   -0.083372           
         F         F         0.42253   0.06211   0.50035   -0.071567           
         O         O         0.46740   0.76089   0.51099   -0.442032           
         N         N         0.43417   0.85344   0.49736   -0.206577           
         C         C         0.40406   0.71614   0.50963   0.355767  
         C         C         0.35070   0.73510   0.50068   -0.237925           
         C         C         0.36717   0.80241   0.49228   0.122108  
         C         C         0.46188   0.92397   0.49775   0.017098  
         C         C         0.45989   0.03078   0.50171   0.090641  
         C         C         0.42561   0.95927   0.49827   0.085452  
         H         H         0.46798   0.83313   0.50469   0.269228  
         H         H         0.32468   0.81337   0.48172   0.113212  
         F         F         0.06851   0.43119   0.50854   -0.077482           
         F         F         0.93419   0.36073   0.51573   -0.076005           
         O         O         0.23150   0.70203   0.48916   -0.449120           
         N         N         0.13952   0.57890   0.50116   -0.214312           
         C         C         0.27745   0.68448   0.49845   0.351621  
         C         C         0.25836   0.61339   0.50625   -0.244447           
         C         C         0.18992   0.56315   0.50686   0.106973  
         C         C         0.06941   0.53692   0.50165   0.020769  
         C         C         0.96305   0.42808   0.50488   0.097107  
         C         C         0.03386   0.46546   0.50478   0.088417  
         H         H         0.16081   0.63239   0.49747   0.268610  
         H         H         0.17764   0.51065   0.51241   0.111861 

