
##########################################################################
#               Crystallographic Information Format file
#               Produced by PyCifRW module
#
#  This is a CIF file.  CIF has been adopted by the International
#  Union of Crystallography as the standard for data archiving and
#  transmission.
#
#  For information on this file format, follow the CIF links at
#  http://www.iucr.org
##########################################################################

data_image0

_cell_length_a                          30.0796
_cell_length_b                          30.3313
_cell_length_c                          8.28403
_cell_angle_alpha                       55.3479
_cell_angle_beta                        96.3085
_cell_angle_gamma                       120.172
_symmetry_space_group_name_H-M          'P 1'
_space_group_name_Hall                  'P 1'
loop_
  _atom_site_type_symbol
  _atom_site_label
  _atom_site_fract_x
  _atom_site_fract_y
  _atom_site_fract_z
  _atom_site_charge
         H         H         0.56252   0.66855   0.97463   0.133672  
         H         H         0.31714   0.81602   0.12503   0.145116  
         H         H         0.10309   0.43096   0.04776   0.134983  
         H         H         0.47881   0.29654   0.19112   0.141819  
         H         H         0.66541   0.11205   0.96260   0.128894  
         H         H         0.82820   0.48282   0.12463   0.132934  
         H         H         0.43410   0.32039   0.07691   0.132425  
         H         H         0.67927   0.18987   0.83696   0.141772  
         H         H         0.89229   0.55257   0.01780   0.135253  
         H         H         0.52353   0.69886   0.83400   0.140811  
         H         H         0.33426   0.89602   0.96747   0.129566  
         H         H         0.16591   0.50240   0.90559   0.133439  
         O         O         0.30497   0.56213   0.01625   -0.476497           
         N         N         0.40199   0.59311   0.98856   -0.221582           
         C         C         0.31875   0.61022   0.01097   0.356794  
         C         C         0.41265   0.64161   0.98891   0.120265  
         C         C         0.43322   0.57102   0.99009   0.144340  
         C         C         0.48771   0.59762   0.98961   0.089776  
         C         C         0.51132   0.56658   0.00077   -0.187832           
         C         C         0.48504   0.51193   0.00642   0.055981  
         C         C         0.43116   0.48754   0.00292   -0.133178           
         C         C         0.40612   0.51621   0.99595   -0.176757           
         C         C         0.37322   0.65188   -0.00039  -0.249418           
         H         H         0.45250   0.67426   0.98082   0.094971  
         C         C         0.52183   0.65765   0.97403   -0.417838           
         H         H         0.36115   0.56734   -0.00382  0.261612  
         H         H         0.36452   0.49684   0.99231   0.128030  
         H         H         0.55284   0.58718   0.00453   0.104715  
         H         H         0.40857   0.44672   0.00010   0.105048  
         H         H         0.50745   0.65289   0.10255   0.129534  
         O         O         0.43719   0.74193   0.98946   -0.483994           
         N         N         0.40865   0.80639   0.01370   -0.216134           
         C         C         0.38915   0.70608   -0.00118  0.355912  
         C         C         0.35994   0.76688   0.01750   0.110118  
         C         C         0.42901   0.85900   0.01504   0.154198  
         C         C         0.40188   0.88766   0.00019   0.083523  
         C         C         0.43039   0.94231   0.99307   -0.195579           
         C         C         0.48386   0.97020   0.00108   0.065581  
         C         C         0.50906   0.93956   0.01977   -0.130980           
         C         C         0.48226   0.88559   0.02643   -0.169868           
         C         C         0.34860   0.71778   0.00892   -0.256456           
         H         H         0.32730   0.77154   0.03015   0.097239  
         C         C         0.34496   0.86386   0.98729   -0.419937           
         H         H         0.43482   0.79419   0.00364   0.264312  
         H         H         0.50231   0.86248   0.04092   0.128450  
         H         H         0.40920   0.96430   0.97807   0.102156  
         H         H         0.55007   0.95769   0.03004   0.107217  
         H         H         0.33838   0.86174   0.85796   0.136070  
         O         O         0.26007   0.69293   0.00588   -0.485973           
         N         N         0.19013   0.59706   0.00746   -0.216771           
         C         C         0.29418   0.67925   0.00959   0.352013  
         C         C         0.22899   0.58721   0.00891   0.106560  
         C         C         0.13692   0.56534   0.00440   0.147271  
         C         C         0.10909   0.50874   0.01877   0.083338  
         C         C         0.05546   0.48393   0.01612   -0.191191           
         C         C         0.02744   0.51140   0.00035   0.054332  
         C         C         0.05645   0.56761   0.98626   -0.128112           
         C         C         0.10950   0.59350   0.98899   -0.175012           
         C         C         0.27991   0.62541   0.01257   -0.245618           
         H         H         0.22179   0.54888   0.00637   0.095675  
         C         C         0.13323   0.47335   0.03740   -0.417368           
         H         H         0.20535   0.63728   0.00526   0.265340  
         H         H         0.13101   0.63659   0.98018   0.124668  
         H         H         0.03514   0.44070   0.02613   0.102692  
         H         H         0.03767   0.59161   0.97450   0.108371  
         H         H         0.14903   0.45769   0.17252   0.137761  
         O         O         0.69465   0.43670   0.97610   -0.474802           
         N         N         0.59734   0.40579   0.00599   -0.220847           
         C         C         0.68038   0.38843   0.98186   0.355874  
         C         C         0.58660   0.35792   0.00204   0.120344  
         C         C         0.56562   0.42639   0.01267   0.147035  
         C         C         0.51025   0.39698   0.02895   0.088994  
         C         C         0.48607   0.42664   0.02521   -0.188533           
         C         C         0.51293   0.48303   0.00972   0.058836  
         C         C         0.56774   0.51020   -0.00227  -0.129434           
         C         C         0.59309   0.48244   -0.00040  -0.179066           
         C         C         0.62599   0.34783   0.98898   -0.248188           
         H         H         0.54663   0.32547   0.00984   0.095432  
         C         C         0.47579   0.33489   0.05692   -0.416025           
         H         H         0.63827   0.43196   -0.00386  0.262454  
         H         H         0.63545   0.50402   0.99061   0.128010  
         H         H         0.44360   0.40339   0.03680   0.105446  
         H         H         0.59118   0.55326   0.98836   0.105240  
         H         H         0.48615   0.33841   0.92527   0.129896  
         O         O         0.56191   0.25991   0.98926   -0.484712           
         N         N         0.58875   0.19281   0.97497   -0.217655           
         C         C         0.60968   0.29409   0.98681   0.353970  
         C         C         0.63720   0.23055   0.97843   0.111513  
         C         C         0.56773   0.13990   0.97492   0.157780  
         C         C         0.59546   0.11356   0.97475   0.083979  
         C         C         0.56650   0.05908   0.98115   -0.191239           
         C         C         0.51193   0.02842   0.99024   0.061153  
         C         C         0.48599   0.05648   0.98798   -0.126528           
         C         C         0.51338   0.11094   0.97870   -0.169162           
         C         C         0.64935   0.28033   0.98443   -0.251753           
         H         H         0.66881   0.22330   0.97613   0.098021  
         C         C         0.65363   0.13996   0.96930   -0.418320           
         H         H         0.56334   0.20660   0.97918   0.264204  
         H         H         0.49274   0.13199   0.97760   0.123364  
         H         H         0.58868   0.04021   0.97756   0.101263  
         H         H         0.44378   0.03541   0.99595   0.102997  
         H         H         0.66255   0.13749   0.10566   0.135297  
         O         O         0.73612   0.30029   0.00967   -0.480615           
         N         N         0.80685   0.39586   0.00780   -0.213961           
         C         C         0.70320   0.31661   0.99411   0.344275  
         C         C         0.76927   0.40857   0.99411   0.105375  
         C         C         0.86047   0.42779   0.00633   0.147148  
         C         C         0.88826   0.48294   0.00018   0.082426  
         C         C         0.94217   0.50811   -0.00244  -0.187683           
         C         C         0.97072   0.48274   -0.00068  0.052291  
         C         C         0.94188   0.42825   0.00373   -0.125984           
         C         C         0.88833   0.40158   0.00817   -0.176893           
         C         C         0.71832   0.37128   0.98757   -0.245116           
         H         H         0.77771   0.44897   0.98665   0.097636  
         C         C         0.86371   0.51576   -0.00008  -0.417070           
         H         H         0.79081   0.35480   0.01429   0.264035  
         H         H         0.86698   0.35996   0.00882   0.124657  
         H         H         0.96221   0.54940   -0.00180  0.101956  
         H         H         0.96122   0.40655   0.00076   0.107190  
         H         H         0.85200   0.53877   0.85845   0.136627  
         H         H         0.56389   0.67012   0.47602   0.134056  
         H         H         0.33779   0.89951   0.46937   0.129368  
         H         H         0.10393   0.43399   0.55006   0.134694  
         H         H         0.43517   0.32183   0.57706   0.133135  
         H         H         0.66873   0.11469   0.46523   0.130125  
         H         H         0.82968   0.48700   0.62237   0.132002  
         H         H         0.48748   0.34138   0.42172   0.129326  
         H         H         0.68271   0.19275   0.33496   0.143669  
         H         H         0.89389   0.55667   0.51726   0.134562  
         H         H         0.52523   0.70090   0.33296   0.140363  
         H         H         0.34195   0.86649   0.35502   0.135058  
         H         H         0.16733   0.50480   0.40984   0.132906  
         O         O         0.30602   0.56402   0.52044   -0.477203           
         N         N         0.40332   0.59528   0.48900   -0.222291           
         C         C         0.32023   0.61256   0.51296   0.357856  
         C         C         0.41423   0.64413   0.48757   0.117008  
         C         C         0.43452   0.57323   0.48979   0.147573  
         C         C         0.48904   0.59975   0.48909   0.090867  
         C         C         0.51251   0.56867   0.49935   -0.187800           
         C         C         0.48604   0.51405   0.50466   0.059472  
         C         C         0.43214   0.48977   0.50131   -0.131407           
         C         C         0.40721   0.51844   0.49533   -0.179696           
         C         C         0.37484   0.65429   0.49982   -0.247733           
         H         H         0.45428   0.67722   0.47671   0.096264  
         C         C         0.52334   0.65972   0.47397   -0.415280           
         H         H         0.36240   0.56916   0.49872   0.262480  
         H         H         0.36554   0.49909   0.49223   0.128678  
         H         H         0.55406   0.58913   0.50306   0.101773  
         H         H         0.40944   0.44895   0.49835   0.105599  
         H         H         0.50887   0.65521   0.60180   0.128544  
         O         O         0.43918   0.74359   0.49186   -0.485242           
         N         N         0.41168   0.80982   0.51090   -0.216753           
         C         C         0.39112   0.70839   0.49974   0.356100  
         C         C         0.36286   0.77050   0.51451   0.108423  
         C         C         0.43232   0.86248   0.51215   0.155550  
         C         C         0.40526   0.89101   0.49934   0.084154  
         C         C         0.43393   0.94548   0.49313   -0.189546           
         C         C         0.48754   0.97363   0.49906   0.059182  
         C         C         0.51270   0.94317   0.51544   -0.123866           
         C         C         0.48570   0.88918   0.52205   -0.170376           
         C         C         0.35097   0.72083   0.50843   -0.253065           
         H         H         0.33057   0.77596   0.52435   0.097698  
         C         C         0.34836   0.86758   0.48636   -0.418374           
         H         H         0.43745   0.79686   0.50352   0.265832  
         H         H         0.50573   0.86621   0.53482   0.125437  
         H         H         0.41251   0.96687   0.48151   0.099650  
         H         H         0.55387   0.96143   0.52358   0.103991  
         H         H         0.32029   0.81941   0.62237   0.144058  
         O         O         0.26271   0.69695   0.50294   -0.483838           
         N         N         0.19214   0.60046   0.50772   -0.217182           
         C         C         0.29643   0.68256   0.50872   0.348580  
         C         C         0.23072   0.59018   0.50974   0.110076  
         C         C         0.13893   0.56917   0.50378   0.146867  
         C         C         0.11076   0.51248   0.51858   0.082185  
         C         C         0.05723   0.48823   0.51451   -0.189309           
         C         C         0.02951   0.51606   0.49843   0.054922  
         C         C         0.05872   0.57211   0.48541   -0.128488           
         C         C         0.11180   0.59767   0.48803   -0.174922           
         C         C         0.28174   0.62832   0.51333   -0.245666           
         H         H         0.22313   0.55156   0.50791   0.096078  
         C         C         0.13433   0.47626   0.53997   -0.413840           
         H         H         0.20769   0.64093   0.50441   0.264215  
         H         H         0.13351   0.64063   0.47995   0.124477  
         H         H         0.03665   0.44495   0.52463   0.102235  
         H         H         0.04009   0.59618   0.47458   0.108549  
         H         H         0.14951   0.46025   0.67670   0.135940  
         O         O         0.69608   0.44022   0.47155   -0.476111           
         N         N         0.59851   0.40821   0.50354   -0.221067           
         C         C         0.68210   0.39147   0.48076   0.356000  
         C         C         0.58813   0.36007   0.50183   0.118484  
         C         C         0.56665   0.42851   0.51104   0.146949  
         C         C         0.51120   0.39869   0.52915   0.088883  
         C         C         0.48694   0.42819   0.52608   -0.185938           
         C         C         0.51386   0.48504   0.50796   0.056662  
         C         C         0.56879   0.51266   0.49370   -0.131250           
         C         C         0.59419   0.48486   0.49634   -0.179696           
         C         C         0.62781   0.35037   0.48913   -0.247351           
         H         H         0.54826   0.32705   0.51134   0.095970  
         C         C         0.47698   0.33678   0.55576   -0.415442           
         H         H         0.63940   0.43496   0.49190   0.262498  
         H         H         0.63660   0.50663   0.48686   0.128346  
         H         H         0.44438   0.40453   0.53975   0.102826  
         H         H         0.59219   0.55601   0.48271   0.105470  
         H         H         0.48052   0.29853   0.68809   0.141703  
         O         O         0.56432   0.26228   0.48976   -0.484591           
         N         N         0.59230   0.19657   0.47152   -0.215959           
         C         C         0.61197   0.29663   0.48784   0.355715  
         C         C         0.64042   0.23409   0.47742   0.111257  
         C         C         0.57142   0.14362   0.47170   0.151427  
         C         C         0.59902   0.11683   0.47413   0.088089  
         C         C         0.57002   0.06211   0.48184   -0.194131           
         C         C         0.51558   0.03182   0.48862   0.066301  
         C         C         0.48977   0.06029   0.48413   -0.131594           
         C         C         0.51716   0.11486   0.47423   -0.166183           
         C         C         0.65192   0.28325   0.48602   -0.254304           
         H         H         0.67230   0.22728   0.47486   0.097207  
         C         C         0.65715   0.14315   0.46917   -0.421337           
         H         H         0.56671   0.21009   0.47626   0.265126  
         H         H         0.49658   0.13610   0.47195   0.123674  
         H         H         0.59189   0.04248   0.48197   0.100508  
         H         H         0.44764   0.03952   0.49112   0.106299  
         H         H         0.66619   0.14145   0.60428   0.134695  
         O         O         0.73854   0.30315   0.51543   -0.480346           
         N         N         0.80864   0.39911   0.51229   -0.218385           
         C         C         0.70546   0.31942   0.49785   0.344904  
         C         C         0.77104   0.41204   0.49535   0.107785  
         C         C         0.86242   0.43177   0.50761   0.147283  
         C         C         0.89018   0.48717   0.50008   0.081014  
         C         C         0.94418   0.51271   0.49619   -0.190008           
         C         C         0.97280   0.48748   0.49735   0.052550  
         C         C         0.94408   0.43293   0.50197   -0.125400           
         C         C         0.89044   0.40586   0.50817   -0.175777           
         C         C         0.72022   0.37429   0.48956   -0.245456           
         H         H         0.77939   0.45303   0.48390   0.096192  
         C         C         0.86546   0.51996   0.49879   -0.415592           
         H         H         0.79265   0.35760   0.52134   0.264651  
         H         H         0.86908   0.36408   0.50963   0.124869  
         H         H         0.96418   0.55398   0.49702   0.102226  
         H         H         0.96353   0.41152   0.49744   0.106021  
         H         H         0.85409   0.54305   0.35640   0.137056 

