
##########################################################################
#               Crystallographic Information Format file
#               Produced by PyCifRW module
#
#  This is a CIF file.  CIF has been adopted by the International
#  Union of Crystallography as the standard for data archiving and
#  transmission.
#
#  For information on this file format, follow the CIF links at
#  http://www.iucr.org
##########################################################################

data_image0

_cell_length_a                          30.2273
_cell_length_b                          30.0866
_cell_length_c                          7.92512
_cell_angle_alpha                       118.809
_cell_angle_beta                        85.4244
_cell_angle_gamma                       120.076
_symmetry_space_group_name_H-M          'P 1'
_space_group_name_Hall                  'P 1'
loop_
  _atom_site_type_symbol
  _atom_site_label
  _atom_site_fract_x
  _atom_site_fract_y
  _atom_site_fract_z
  _atom_site_charge
         O         O         0.31211   0.56463   0.99235   -0.436842           
         N         N         0.40933   0.60321   0.01551   -0.224823           
         C         C         0.32077   0.61096   0.99567   0.356450  
         C         C         0.41674   0.65335   0.03298   0.125377  
         C         C         0.44039   0.58114   0.01271   0.182273  
         C         C         0.49393   0.60191   0.00544   -0.013766           
         C         C         0.51611   0.57090   0.00616   -0.173031           
         C         C         0.48758   0.51735   0.00704   0.059588  
         C         C         0.43394   0.49555   0.00789   -0.096620           
         C         C         0.41204   0.52686   0.01361   -0.176261           
         C         C         0.37366   0.65774   0.01771   -0.239352           
         H         H         0.45554   0.69011   0.05573   0.120512  
         N         N         0.53012   0.65473   0.98902   0.524658  
         H         H         0.36861   0.57465   0.00227   0.257183  
         H         H         0.37094   0.50972   0.01964   0.142821  
         H         H         0.55763   0.59158   0.00689   0.127989  
         H         H         0.40881   0.45401   0.00727   0.123977  
         O         O         0.43077   0.75109   0.04010   -0.447258           
         N         N         0.39547   0.80708   0.00232   -0.238065           
         C         C         0.38401   0.71072   0.01904   0.350051  
         C         C         0.34687   0.76382   0.98301   0.123717  
         C         C         0.41709   0.85895   0.99487   0.182556  
         C         C         0.39541   0.89186   0.00129   -0.023145           
         C         C         0.42549   0.94427   0.99400   -0.178235           
         C         C         0.47818   0.96767   0.98318   0.060421  
         C         C         0.49954   0.93426   0.97313   -0.098730           
         C         C         0.47005   0.88221   0.97779   -0.157298           
         C         C         0.33984   0.71572   0.99339   -0.241710           
         H         H         0.31309   0.76569   0.95977   0.118227  
         N         N         0.34237   0.87758   0.03127   0.522022  
         H         H         0.42225   0.79561   0.02045   0.259333  
         H         H         0.48760   0.85728   0.96748   0.142394  
         H         H         0.40560   0.96653   0.00004   0.129101  
         H         H         0.53986   0.94860   0.95973   0.125222  
         O         O         0.24871   0.67719   0.96455   -0.439262           
         N         N         0.18801   0.58332   0.98413   -0.224246           
         C         C         0.28655   0.67095   0.97944   0.353932  
         C         C         0.22874   0.57646   0.98260   0.124710  
         C         C         0.13567   0.55374   0.99282   0.183214  
         C         C         0.10274   0.50072   0.00033   -0.020343           
         C         C         0.04959   0.47964   -0.00263  -0.168277           
         C         C         0.02563   0.50821   0.98997   0.060377  
         C         C         0.05836   0.56161   0.98791   -0.097217           
         C         C         0.11073   0.58272   0.98816   -0.171792           
         C         C         0.27787   0.61937   0.98375   -0.233181           
         H         H         0.22373   0.53841   0.98402   0.120046  
         N         N         0.11932   0.46471   0.02093   0.523287  
         H         H         0.20147   0.62262   0.97847   0.259891  
         H         H         0.13458   0.62324   0.98111   0.139828  
         H         H         0.02791   0.43940   0.00577   0.124283  
         H         H         0.04291   0.58681   0.98295   0.124017  
         O         O         0.68523   0.43199   0.99579   -0.438805           
         N         N         0.58946   0.39812   0.99016   -0.227451           
         C         C         0.67639   0.38734   0.00524   0.357116  
         C         C         0.58214   0.35146   -0.00049  0.117423  
         C         C         0.55892   0.42053   0.99099   0.173490  
         C         C         0.50613   0.40127   0.00732   -0.022868           
         C         C         0.48445   0.43386   0.01787   -0.155855           
         C         C         0.51233   0.48591   0.00798   0.054184  
         C         C         0.56514   0.50570   0.99479   -0.099636           
         C         C         0.58718   0.47435   0.98731   -0.175978           
         C         C         0.62406   0.34445   0.00492   -0.231981           
         H         H         0.54375   0.31873   0.00017   0.114835  
         N         N         0.46917   0.34539   0.00478   0.524717  
         H         H         0.62971   0.42361   0.98801   0.258159  
         H         H         0.62803   0.49105   0.97729   0.142407  
         H         H         0.44380   0.41529   0.03013   0.127540  
         H         H         0.58952   0.54605   0.98815   0.124281  
         O         O         0.56670   0.25433   0.00369   -0.442288           
         N         N         0.60001   0.19191   0.00869   -0.226726           
         C         C         0.61291   0.29173   0.00742   0.351423  
         C         C         0.64794   0.23290   0.01060   0.102010  
         C         C         0.57700   0.13781   0.00345   0.187588  
         C         C         0.59748   0.10525   0.01205   -0.024371           
         C         C         0.56411   0.05097   0.00475   -0.177262           
         C         C         0.51016   0.02472   0.98707   0.061403  
         C         C         0.48951   0.05668   0.97798   -0.093356           
         C         C         0.52182   0.11067   0.98681   -0.160672           
         C         C         0.65571   0.28263   0.01091   -0.238291           
         H         H         0.68067   0.22746   0.01176   0.120594  
         N         N         0.65293   0.12292   0.03082   0.519486  
         H         H         0.57399   0.20591   0.00706   0.259856  
         H         H         0.50476   0.13419   0.97871   0.141474  
         H         H         0.58361   0.03037   0.01686   0.121316  
         H         H         0.44774   0.03934   0.96226   0.124892  
         O         O         0.74536   0.31541   0.01164   -0.436733           
         N         N         0.80760   0.41072   0.00082   -0.217734           
         C         C         0.70879   0.32479   0.01156   0.347751  
         C         C         0.76764   0.41916   0.00894   0.122043  
         C         C         0.85973   0.43944   0.98863   0.180034  
         C         C         0.89286   0.49268   0.98340   -0.015156           
         C         C         0.94585   0.51345   0.98459   -0.169712           
         C         C         0.96942   0.48405   0.98776   0.055800  
         C         C         0.93644   0.43027   0.98731   -0.096391           
         C         C         0.88416   0.40955   0.98829   -0.170131           
         C         C         0.71848   0.37726   0.01145   -0.234914           
         H         H         0.77298   0.45776   0.01064   0.121469  
         N         N         0.87658   0.52989   0.97089   0.521371  
         H         H         0.79359   0.37035   -0.00048  0.258316  
         H         H         0.85991   0.36868   0.99268   0.140727  
         H         H         0.96802   0.55457   0.98158   0.126333  
         H         H         0.95157   0.40450   0.98979   0.124708  
         O         O         0.51098   0.67467   0.93205   -0.338739           
         O         O         0.57767   0.67517   0.02414   -0.312770           
         O         O         0.32223   0.85073   0.12285   -0.331963           
         O         O         0.32163   0.89527   0.97059   -0.311615           
         O         O         0.16681   0.48557   0.06342   -0.322803           
         O         O         0.08472   0.41625   0.00265   -0.323648           
         O         O         0.47451   0.30217   0.90763   -0.310402           
         O         O         0.43344   0.34437   0.09548   -0.331485           
         O         O         0.68596   0.16864   0.02827   -0.313663           
         O         O         0.66378   0.09005   0.04616   -0.325775           
         O         O         0.82910   0.50837   0.92261   -0.321996           
         O         O         0.91125   0.58014   0.00242   -0.322161           
         O         O         0.31607   0.56770   0.49895   -0.439943           
         N         N         0.41307   0.60492   0.51453   -0.221142           
         C         C         0.32469   0.61380   0.50040   0.359670  
         C         C         0.42026   0.65448   0.52723   0.122491  
         C         C         0.44384   0.58251   0.51186   0.189749  
         C         C         0.49701   0.60148   0.49850   -0.014722           
         C         C         0.51845   0.57002   0.50189   -0.176420           
         C         C         0.48974   0.51775   0.50983   0.061060  
         C         C         0.43654   0.49762   0.51620   -0.093200           
         C         C         0.41531   0.52925   0.51939   -0.178250           
         C         C         0.37741   0.65969   0.51673   -0.239735           
         H         H         0.45900   0.68993   0.54257   0.121207  
         N         N         0.53369   0.65242   0.47294   0.525521  
         H         H         0.37254   0.57730   0.50668   0.256921  
         H         H         0.37443   0.51295   0.52839   0.142154  
         H         H         0.55959   0.58911   0.49699   0.131158  
         H         H         0.41131   0.45722   0.52217   0.123202  
         O         O         0.43432   0.75337   0.54049   -0.449054           
         N         N         0.39823   0.80868   0.49723   -0.226416           
         C         C         0.38775   0.71306   0.52084   0.352810  
         C         C         0.35021   0.76638   0.48762   0.105866  
         C         C         0.42032   0.86051   0.48842   0.182808  
         C         C         0.40102   0.89652   0.50636   -0.018734           
         C         C         0.43318   0.94986   0.50593   -0.174607           
         C         C         0.48531   0.97073   0.48811   0.059474  
         C         C         0.50473   0.93519   0.47235   -0.099421           
         C         C         0.47341   0.88258   0.47216   -0.159980           
         C         C         0.34366   0.71866   0.49886   -0.244998           
         H         H         0.31640   0.76856   0.46783   0.120942  
         N         N         0.34838   0.88426   0.53702   0.527845  
         H         H         0.42514   0.79733   0.51365   0.256872  
         H         H         0.48941   0.85610   0.45956   0.141152  
         H         H         0.41500   0.97462   0.52276   0.125219  
         H         H         0.54496   0.94859   0.45895   0.125310  
         O         O         0.25278   0.68092   0.47431   -0.441273           
         N         N         0.19214   0.58690   0.49029   -0.220330           
         C         C         0.29049   0.67419   0.48666   0.350613  
         C         C         0.23289   0.58032   0.49147   0.127050  
         C         C         0.13948   0.55658   0.49290   0.182550  
         C         C         0.10604   0.50342   0.49930   -0.022640           
         C         C         0.05288   0.48287   0.49687   -0.168469           
         C         C         0.02913   0.51150   0.48813   0.056534  
         C         C         0.06237   0.56483   0.48607   -0.096821           
         C         C         0.11476   0.58580   0.48820   -0.171401           
         C         C         0.28196   0.62273   0.49078   -0.236516           
         H         H         0.22795   0.54267   0.49505   0.117656  
         N         N         0.12210   0.46652   0.51648   0.523990  
         H         H         0.20564   0.62619   0.48421   0.256775  
         H         H         0.13899   0.62672   0.48408   0.141136  
         H         H         0.03100   0.44289   0.50686   0.125659  
         H         H         0.04727   0.59028   0.48096   0.123442  
         O         O         0.68439   0.42993   0.48267   -0.441331           
         N         N         0.58816   0.39490   0.49239   -0.223945           
         C         C         0.67733   0.38611   0.49339   0.358597  
         C         C         0.58272   0.34851   0.49895   0.116962  
         C         C         0.55764   0.41777   0.49700   0.177912  
         C         C         0.50547   0.40121   0.52093   -0.023951           
         C         C         0.48533   0.43478   0.52706   -0.155519           
         C         C         0.51372   0.48557   0.51082   0.056657  
         C         C         0.56597   0.50303   0.49213   -0.099404           
         C         C         0.58638   0.47035   0.48533   -0.176742           
         C         C         0.62583   0.34294   0.49912   -0.233087           
         H         H         0.54518   0.31544   0.50344   0.118835  
         N         N         0.46799   0.34869   0.53671   0.529053  
         H         H         0.62774   0.42024   0.48387   0.255396  
         H         H         0.62672   0.48495   0.46980   0.141421  
         H         H         0.44513   0.41798   0.54383   0.124979  
         H         H         0.59120   0.54230   0.48003   0.125120  
         O         O         0.57082   0.25153   0.49224   -0.442861           
         N         N         0.60808   0.19434   0.51142   -0.232023           
         C         C         0.61670   0.29085   0.50115   0.351375  
         C         C         0.65550   0.23652   0.51599   0.109857  
         C         C         0.58565   0.14025   0.50575   0.186869  
         C         C         0.60604   0.10751   0.51354   -0.025418           
         C         C         0.57266   0.05325   0.50713   -0.177657           
         C         C         0.51859   0.02737   0.49033   0.059719  
         C         C         0.49825   0.05947   0.48032   -0.097011           
         C         C         0.53054   0.11347   0.49009   -0.162150           
         C         C         0.66106   0.28488   0.51240   -0.243763           
         H         H         0.68939   0.23340   0.52191   0.122078  
         N         N         0.66149   0.12502   0.52615   0.523720  
         H         H         0.58105   0.20674   0.50481   0.256958  
         H         H         0.51342   0.13712   0.48389   0.142550  
         H         H         0.59225   0.03275   0.51973   0.126129  
         H         H         0.45647   0.04191   0.46377   0.122108  
         O         O         0.75146   0.32192   0.52446   -0.433128           
         N         N         0.81003   0.41221   0.48903   -0.227091           
         C         C         0.71337   0.32818   0.51314   0.351196  
         C         C         0.76900   0.41818   0.48436   0.133455  
         C         C         0.86281   0.44233   0.48665   0.178094  
         C         C         0.89597   0.49596   0.48382   -0.019871           
         C         C         0.94895   0.51677   0.48080   -0.166544           
         C         C         0.97289   0.48776   0.48568   0.055348  
         C         C         0.94004   0.43424   0.48699   -0.099578           
         C         C         0.88758   0.41270   0.48587   -0.167748           
         C         C         0.72066   0.37759   0.49781   -0.231406           
         H         H         0.77300   0.45408   0.47074   0.112231  
         N         N         0.87888   0.53420   0.48553   0.522634  
         H         H         0.79685   0.37402   0.50179   0.257306  
         H         H         0.86369   0.37117   0.48639   0.141466  
         H         H         0.97069   0.55721   0.47329   0.127394  
         H         H         0.95546   0.40888   0.49079   0.124929  
         O         O         0.51661   0.67840   0.44179   -0.337095           
         O         O         0.57974   0.66557   0.47475   -0.318351           
         O         O         0.31198   0.83143   0.46535   -0.312738           
         O         O         0.34349   0.92768   0.63058   -0.326573           
         O         O         0.16753   0.47818   0.50877   -0.313860           
         O         O         0.08881   0.42512   0.54120   -0.337192           
         O         O         0.47537   0.30734   0.47525   -0.315004           
         O         O         0.43007   0.34855   0.60914   -0.335344           
         O         O         0.69284   0.17008   0.51567   -0.321995           
         O         O         0.67390   0.09432   0.54638   -0.318799           
         O         O         0.84057   0.53260   0.55640   -0.305196           
         O         O         0.90486   0.56707   0.41784   -0.338164 

