
##########################################################################
#               Crystallographic Information Format file
#               Produced by PyCifRW module
#
#  This is a CIF file.  CIF has been adopted by the International
#  Union of Crystallography as the standard for data archiving and
#  transmission.
#
#  For information on this file format, follow the CIF links at
#  http://www.iucr.org
##########################################################################

data_image0

_cell_length_a                          22.5035
_cell_length_b                          22.6733
_cell_length_c                          8.83813
_cell_angle_alpha                       124.264
_cell_angle_beta                        81.4542
_cell_angle_gamma                       120.471
_symmetry_space_group_name_H-M          'P 1'
_space_group_name_Hall                  'P 1'
loop_
  _atom_site_type_symbol
  _atom_site_label
  _atom_site_fract_x
  _atom_site_fract_y
  _atom_site_fract_z
  _atom_site_charge
         C         C         0.43467   0.62794   0.35236   0.145976  
         C         C         0.57046   0.38435   0.35500   0.121377  
         N         N         0.41464   0.56700   0.37554   -0.260005           
         N         N         0.58607   0.44934   0.35323   -0.237733           
         C         C         0.45707   0.53977   0.38301   0.199482  
         C         C         0.54166   0.47758   0.36632   0.206360  
         C         C         0.42683   0.45736   0.33219   -0.177092           
         C         C         0.57247   0.56033   0.42234   -0.152995           
         C         C         0.46831   0.42665   0.32497   -0.186860           
         C         C         0.53090   0.59133   0.43449   -0.159368           
         H         H         0.48845   0.66003   0.33650   0.107065  
         H         H         0.51859   0.34925   0.37514   0.101852  
         H         H         0.62955   0.60062   0.45900   0.137220  
         H         H         0.44290   0.36232   0.28083   0.140804  
         H         H         0.55504   0.65661   0.48755   0.144984  
         H         H         0.63867   0.47840   0.33752   0.274475  
         H         H         0.36123   0.54094   0.38793   0.271170  
         S         S         0.33490   0.38596   0.24533   1.164682  
         O         O         0.32473   0.34857   0.04413   -0.543930           
         O         O         0.29613   0.42561   0.35881   -0.486021           
         O         O         0.31931   0.31431   0.26352   -0.507000           
         H         H         0.30100   0.32758   0.38576   0.371967  
         C         C         0.69064   0.41064   0.32282   0.360787  
         C         C         0.61953   0.36229   0.33986   -0.245617           
         C         C         0.31657   0.61010   0.36509   0.353660  
         C         C         0.38893   0.65069   0.34400   -0.243124           
         O         O         0.70843   0.47093   0.31217   -0.465413           
         O         O         0.29417   0.55439   0.39423   -0.445141           
         C         C         0.39594   0.81985   0.34075   0.110674  
         C         C         0.63420   0.20914   0.36395   0.116319  
         N         N         0.46206   0.86334   0.32309   -0.248510           
         N         N         0.57028   0.16208   0.38122   -0.232390           
         C         C         0.49177   0.93944   0.34558   0.203376  
         C         C         0.54719   0.09128   0.37791   0.203828  
         C         C         0.55894   0.97772   0.30666   -0.186423           
         C         C         0.48241   0.05683   0.42823   -0.140027           
         C         C         0.58594   0.05251   0.32382   -0.187936           
         C         C         0.45609   0.98345   0.41382   -0.166217           
         H         H         0.35963   0.84098   0.36048   0.106032  
         H         H         0.67606   0.19796   0.36244   0.111321  
         H         H         0.45447   0.09022   0.48466   0.141403  
         H         H         0.63746   0.07867   0.29064   0.135518  
         H         H         0.40713   0.96024   0.46036   0.129672  
         H         H         0.53622   0.18213   0.38847   0.275339  
         H         H         0.49028   0.83408   0.29238   0.270427  
         S         S         0.61454   0.93614   0.20876   1.165519  
         O         O         0.68662   0.00386   0.29509   -0.505646           
         O         O         0.59366   0.88682   0.00529   -0.533608           
         O         O         0.59294   0.87002   0.25034   -0.494113           
         H         H         0.61901   0.90026   0.38194   0.374690  
         C         C         0.59789   0.29264   0.35142   0.355647  
         C         C         0.65075   0.27373   0.35060   -0.248745           
         C         C         0.41541   0.71607   0.31319   0.358082  
         C         C         0.37067   0.74886   0.33504   -0.238526           
         O         O         0.53521   0.25065   0.36396   -0.478024           
         O         O         0.47537   0.74527   0.27379   -0.457949           
         C         C         0.19887   0.58395   0.33729   0.134467  
         C         C         0.80918   0.43422   0.30133   0.126061  
         N         N         0.14966   0.59762   0.31777   -0.242330           
         N         N         0.85996   0.41969   0.30084   -0.224227           
         C         C         0.07714   0.54946   0.29715   0.200037  
         C         C         0.93027   0.46219   0.28979   0.199006  
         C         C         0.03228   0.57548   0.29167   -0.200704           
         C         C         0.97333   0.43307   0.28482   -0.148616           
         C         C         0.96044   0.53338   0.28944   -0.170169           
         C         C         0.04480   0.47513   0.28733   -0.168859           
         H         H         0.18331   0.53082   0.34075   0.105660  
         H         H         0.82030   0.48298   0.28575   0.110242  
         H         H         0.95031   0.37740   0.28333   0.135923  
         H         H         0.92931   0.55800   0.29125   0.146541  
         H         H         0.07608   0.45103   0.28655   0.135031  
         H         H         0.84080   0.37111   0.31851   0.270356  
         H         H         0.17212   0.65122   0.31897   0.273532  
         S         S         0.06808   0.66823   0.30272   1.175102  
         O         O         0.01151   0.67294   0.25497   -0.540771           
         O         O         0.12317   0.67410   0.19379   -0.517761           
         O         O         0.10060   0.73916   0.51846   -0.514118           
         H         H         0.10560   0.71956   0.59211   0.387691  
         C         C         0.72331   0.32228   0.34006   0.354671  
         C         C         0.74161   0.38869   0.32089   -0.246279           
         C         C         0.29661   0.70760   0.34985   0.355050  
         C         C         0.26962   0.63407   0.34965   -0.229286           
         O         O         0.76922   0.30649   0.34734   -0.469476           
         O         O         0.25784   0.73447   0.36077   -0.440517           
         C         C         0.41247   0.60744   0.81591   0.129987  
         C         C         0.54950   0.35876   0.78927   0.137385  
         N         N         0.38938   0.53934   0.81409   -0.241642           
         N         N         0.56310   0.42172   0.78167   -0.235897           
         C         C         0.43127   0.50914   0.80630   0.201913  
         C         C         0.51756   0.44771   0.78726   0.201247  
         C         C         0.40199   0.42776   0.76129   -0.198105           
         C         C         0.54709   0.52799   0.82918   -0.146787           
         C         C         0.44441   0.39784   0.75329   -0.175307           
         C         C         0.50523   0.55829   0.84033   -0.164698           
         H         H         0.46713   0.64225   0.80980   0.099328  
         H         H         0.49653   0.31927   0.79655   0.109454  
         H         H         0.60399   0.56749   0.85732   0.136308  
         H         H         0.41878   0.33473   0.71661   0.145474  
         H         H         0.53047   0.62159   0.87839   0.138428  
         H         H         0.61663   0.45380   0.77526   0.269599  
         H         H         0.33538   0.51011   0.81393   0.280098  
         S         S         0.30978   0.35559   0.70252   1.155105  
         O         O         0.29845   0.27643   0.64434   -0.491257           
         O         O         0.27766   0.35978   0.57833   -0.516371           
         O         O         0.28266   0.39562   0.88982   -0.490032           
         H         H         0.29445   0.38131   0.96627   0.379726  
         C         C         0.67349   0.39592   0.78650   0.354319  
         C         C         0.60187   0.34331   0.79243   -0.253869           
         C         C         0.29625   0.59428   0.82776   0.370236  
         C         C         0.37013   0.63554   0.81875   -0.232884           
         O         O         0.68977   0.45527   0.77355   -0.465836           
         O         O         0.26935   0.53288   0.83871   -0.448212           
         C         C         0.39010   0.80685   0.79956   0.112061  
         C         C         0.62476   0.19472   0.82153   0.118388  
         N         N         0.45829   0.84959   0.79209   -0.250781           
         N         N         0.56164   0.14385   0.83339   -0.236547           
         C         C         0.48891   0.92467   0.80912   0.209053  
         C         C         0.54137   0.07379   0.83053   0.205824  
         C         C         0.55552   0.96251   0.76640   -0.188857           
         C         C         0.47687   0.03900   0.88116   -0.141763           
         C         C         0.58079   0.03563   0.77631   -0.185250           
         C         C         0.45211   0.96719   0.87163   -0.162525           
         H         H         0.35494   0.82650   0.79889   0.103209  
         H         H         0.66846   0.18652   0.82221   0.113144  
         H         H         0.44705   0.07008   0.93158   0.139466  
         H         H         0.63040   0.05986   0.73309   0.139586  
         H         H         0.40295   0.94347   0.91634   0.133362  
         H         H         0.52457   0.15805   0.82970   0.273734  
         H         H         0.48595   0.82136   0.77646   0.282561  
         S         S         0.61212   0.92193   0.69225   1.167560  
         O         O         0.65547   0.95128   0.58015   -0.524346           
         O         O         0.57257   0.83395   0.61567   -0.490384           
         O         O         0.66727   0.97361   0.87430   -0.505586           
         H         H         0.64447   0.94140   0.93347   0.368299  
         C         C         0.58257   0.27335   0.80137   0.355548  
         C         C         0.63780   0.25884   0.81005   -0.250734           
         C         C         0.40274   0.70525   0.80036   0.360320  
         C         C         0.36078   0.73830   0.80632   -0.237330           
         O         O         0.51932   0.22527   0.79765   -0.482800           
         O         O         0.46522   0.73496   0.77565   -0.444483           
         C         C         0.18345   0.58219   0.81665   0.131994  
         C         C         0.79486   0.42884   0.78702   0.130655  
         N         N         0.13545   0.59846   0.80153   -0.229153           
         N         N         0.84621   0.41578   0.79015   -0.230879           
         C         C         0.06353   0.55261   0.79351   0.213379  
         C         C         0.91676   0.46119   0.78813   0.210790  
         C         C         0.01635   0.57541   0.78632   -0.202995           
         C         C         0.96238   0.43678   0.79288   -0.144929           
         C         C         0.94471   0.53071   0.78362   -0.185076           
         C         C         0.03331   0.48091   0.79421   -0.169931           
         H         H         0.16607   0.52936   0.82290   0.101036  
         H         H         0.80581   0.47965   0.77948   0.108474  
         H         H         0.94144   0.38282   0.79741   0.136235  
         H         H         0.91170   0.55190   0.77888   0.136709  
         H         H         0.06625   0.45979   0.79952   0.133174  
         H         H         0.82577   0.36278   0.79285   0.271388  
         H         H         0.15712   0.65125   0.80117   0.280098  
         S         S         0.04155   0.66764   0.80739   1.174272  
         O         O         0.98140   0.65754   0.73243   -0.511534           
         O         O         0.10668   0.69411   0.73602   -0.523145           
         O         O         0.06376   0.73527   0.02846   -0.503007           
         H         H         0.03753   0.70983   0.09819   0.387400  
         C         C         0.70978   0.30953   0.80183   0.352071  
         C         C         0.72667   0.37836   0.79354   -0.244320           
         C         C         0.28543   0.69801   0.81124   0.362649  
         C         C         0.25445   0.62613   0.82079   -0.225549           
         O         O         0.75598   0.29253   0.79998   -0.469349           
         O         O         0.24851   0.72409   0.80572   -0.446442 

