
##########################################################################
#               Crystallographic Information Format file
#               Produced by PyCifRW module
#
#  This is a CIF file.  CIF has been adopted by the International
#  Union of Crystallography as the standard for data archiving and
#  transmission.
#
#  For information on this file format, follow the CIF links at
#  http://www.iucr.org
##########################################################################

data_image0

_cell_length_a                          22.5955
_cell_length_b                          22.5727
_cell_length_c                          7.85036
_cell_angle_alpha                       88.7545
_cell_angle_beta                        118.546
_cell_angle_gamma                       120.034
_symmetry_space_group_name_H-M          'P 1'
_space_group_name_Hall                  'P 1'
loop_
  _atom_site_type_symbol
  _atom_site_label
  _atom_site_fract_x
  _atom_site_fract_y
  _atom_site_fract_z
  _atom_site_charge
         C         C         0.54727   0.87476   0.26979   0.355888  
         C         C         0.20164   0.69385   0.21459   -0.226286           
         C         C         0.17641   0.73751   0.23061   0.213743  
         C         C         0.22695   0.81126   0.25901   -0.140344           
         C         C         0.30054   0.83993   0.27584   -0.167684           
         C         C         0.05295   0.64762   0.22319   0.121376  
         C         C         0.98573   0.63213   0.22670   -0.248237           
         C         C         0.96873   0.68623   0.23223   0.355155  
         C         C         0.89729   0.66610   0.23640   -0.241877           
         C         C         0.84313   0.59417   0.23349   0.356591  
         C         C         0.86326   0.54206   0.23116   -0.244958           
         C         C         0.51490   0.91791   0.25793   -0.233738           
         C         C         0.93458   0.56015   0.23094   0.347335  
         C         C         0.81252   0.47399   0.23483   0.126986  
         C         C         0.78286   0.35359   0.24690   0.202082  
         C         C         0.71426   0.32613   0.25595   -0.216642           
         C         C         0.88326   0.71884   0.24651   0.127756  
         C         C         0.79676   0.75220   0.25781   0.202627  
         C         C         0.83994   0.82330   0.26034   -0.224605           
         C         C         0.67033   0.09064   0.23856   0.122643  
         C         C         0.69178   0.20768   0.23783   0.171669  
         C         C         0.76231   0.23712   0.23204   -0.178364           
         C         C         0.55329   0.99100   0.24022   0.347042  
         C         C         0.64572   0.86285   0.25862   0.131433  
         C         C         0.73943   0.84009   0.25300   0.167726  
         C         C         0.69782   0.76812   0.25444   -0.166015           
         C         C         0.81140   0.86623   0.25438   -0.007729           
         C         C         0.66951   0.25511   0.25350   -0.009427           
         C         C         0.80732   0.30793   0.23865   -0.141627           
         C         C         0.72498   0.72512   0.25466   -0.143149           
         C         C         0.62759   0.02111   0.24248   -0.224741           
         C         C         0.66125   0.97932   0.24735   0.359865  
         C         C         0.62010   0.90671   0.26079   -0.217934           
         C         C         0.44504   0.89191   0.25813   0.113067  
         C         C         0.32797   0.79722   0.26177   0.171762  
         C         C         0.27611   0.72312   0.23214   -0.010762           
         H         H         0.33797   0.89709   0.30039   0.138023  
         H         H         0.72544   0.10837   0.24184   0.102079  
         H         H         0.89576   0.84782   0.26286   0.144501  
         H         H         0.92548   0.77206   0.24934   0.110771  
         H         H         0.59376   0.11492   0.22455   0.277337  
         H         H         0.74330   0.93452   0.24539   0.274311  
         H         H         0.42142   0.79379   0.27650   0.273886  
         H         H         0.08524   0.74666   0.22301   0.272269  
         H         H         0.88109   0.44288   0.24197   0.273530  
         H         H         0.78483   0.65127   0.24836   0.270300  
         H         H         0.20841   0.84674   0.26776   0.140512  
         H         H         0.42554   0.92794   0.24672   0.100964  
         H         H         0.69029   0.66947   0.25114   0.139645  
         H         H         0.86082   0.32770   0.23186   0.137635  
         H         H         0.69261   0.35865   0.26326   0.142544  
         H         H         0.75929   0.46205   0.23371   0.112192  
         H         H         0.64219   0.74482   0.25211   0.135270  
         H         H         0.60921   0.80849   0.26112   0.102326  
         H         H         0.16509   0.63643   0.18807   0.147542  
         H         H         0.06392   0.60562   0.22491   0.113946  
         H         H         0.78207   0.20340   0.21856   0.134302  
         N         N         0.39991   0.82583   0.26798   -0.238482           
         N         N         0.71146   0.88258   0.25266   -0.240774           
         N         N         0.64856   0.13672   0.23414   -0.231320           
         N         N         0.81925   0.70530   0.25162   -0.239475           
         N         N         0.82750   0.42331   0.24041   -0.229231           
         N         N         0.10397   0.71240   0.22047   -0.242179           
         N         N         0.29539   0.67216   0.20483   0.513845  
         N         N         0.85955   0.93886   0.24424   0.506027  
         N         N         0.59910   0.23424   0.26693   0.516027  
         O         O         0.01509   0.74950   0.23563   -0.467984           
         O         O         0.83307   0.97769   0.22132   -0.302566           
         O         O         0.58991   0.28172   0.29863   -0.324292           
         O         O         0.55259   0.17005   0.24786   -0.318384           
         O         O         0.95236   0.51473   0.23343   -0.460715           
         O         O         0.78105   0.57711   0.23732   -0.459810           
         O         O         0.52301   0.02650   0.22434   -0.437092           
         O         O         0.72263   0.00519   0.23550   -0.434162           
         O         O         0.51367   0.81255   0.28536   -0.439528           
         O         O         0.36811   0.69567   0.27291   -0.312584           
         O         O         0.23833   0.60848   0.11419   -0.324972           
         O         O         0.92359   0.95779   0.25404   -0.323737           
         C         C         0.54421   0.87344   0.77066   0.356065  
         C         C         0.19901   0.69345   0.71594   -0.227719           
         C         C         0.17478   0.73778   0.73326   0.209713  
         C         C         0.22496   0.81144   0.75969   -0.137491           
         C         C         0.29786   0.83955   0.77302   -0.168015           
         C         C         0.05215   0.64828   0.72629   0.120476  
         C         C         0.98399   0.63160   0.72571   -0.248461           
         C         C         0.96712   0.68567   0.73191   0.355294  
         C         C         0.89540   0.66489   0.73470   -0.239124           
         C         C         0.84202   0.59281   0.73230   0.359380  
         C         C         0.86178   0.54059   0.72904   -0.247580           
         C         C         0.51204   0.91661   0.75838   -0.235696           
         C         C         0.93279   0.55910   0.72727   0.347905  
         C         C         0.81161   0.47330   0.73695   0.127335  
         C         C         0.78073   0.35263   0.74790   0.203003  
         C         C         0.71112   0.32510   0.75272   -0.216583           
         C         C         0.88035   0.71703   0.74487   0.125301  
         C         C         0.79352   0.74995   0.75889   0.203640  
         C         C         0.83529   0.82047   0.75685   -0.222045           
         C         C         0.66814   0.08958   0.73974   0.125547  
         C         C         0.68973   0.20673   0.73870   0.173537  
         C         C         0.76038   0.23597   0.73367   -0.180260           
         C         C         0.55095   0.98980   0.74191   0.349084  
         C         C         0.64238   0.86107   0.75986   0.135826  
         C         C         0.73527   0.83785   0.75102   0.168710  
         C         C         0.69394   0.76586   0.75213   -0.168333           
         C         C         0.80688   0.86343   0.75143   -0.011189           
         C         C         0.66688   0.25405   0.75098   -0.009667           
         C         C         0.80527   0.30690   0.74073   -0.141926           
         C         C         0.72171   0.72311   0.75613   -0.139929           
         C         C         0.62500   0.01987   0.74270   -0.226934           
         C         C         0.65810   0.97763   0.74651   0.360553  
         C         C         0.61639   0.90492   0.75948   -0.219210           
         C         C         0.44192   0.89058   0.75728   0.112248  
         C         C         0.32481   0.79619   0.75957   0.171581  
         C         C         0.27268   0.72216   0.72971   -0.011387           
         H         H         0.33586   0.89668   0.79719   0.138580  
         H         H         0.72281   0.10669   0.74076   0.101853  
         H         H         0.89079   0.84454   0.75825   0.142879  
         H         H         0.92061   0.77009   0.74351   0.109544  
         H         H         0.59304   0.11578   0.73159   0.274674  
         H         H         0.73890   0.93244   0.74262   0.274239  
         H         H         0.42106   0.79389   0.78499   0.275288  
         H         H         0.08518   0.74807   0.72988   0.273609  
         H         H         0.87899   0.44067   0.74229   0.272534  
         H         H         0.78445   0.65053   0.75578   0.270816  
         H         H         0.20685   0.84677   0.77409   0.140300  
         H         H         0.42173   0.92632   0.74257   0.101841  
         H         H         0.68745   0.66785   0.75597   0.138572  
         H         H         0.85933   0.32681   0.73662   0.136274  
         H         H         0.68758   0.35632   0.75662   0.144952  
         H         H         0.75930   0.46265   0.73919   0.113610  
         H         H         0.63765   0.74273   0.74667   0.135368  
         H         H         0.60725   0.80751   0.76847   0.101506  
         H         H         0.16344   0.63614   0.69312   0.147896  
         H         H         0.06397   0.60690   0.72808   0.113248  
         H         H         0.78090   0.20271   0.72239   0.135813  
         N         N         0.39775   0.82488   0.77047   -0.240863           
         N         N         0.70737   0.88044   0.75058   -0.242450           
         N         N         0.64703   0.13607   0.73780   -0.229820           
         N         N         0.81754   0.70396   0.75543   -0.237845           
         N         N         0.82634   0.42240   0.74346   -0.226261           
         N         N         0.10336   0.71342   0.72669   -0.242065           
         N         N         0.29042   0.67002   0.70301   0.515588  
         N         N         0.85532   0.93594   0.74374   0.512044  
         N         N         0.59622   0.23264   0.76323   0.514738  
         O         O         0.01415   0.74948   0.73917   -0.470124           
         O         O         0.82973   0.97519   0.72357   -0.304209           
         O         O         0.58588   0.27931   0.79464   -0.322530           
         O         O         0.55029   0.16821   0.74394   -0.319791           
         O         O         0.95081   0.51393   0.72804   -0.463423           
         O         O         0.78032   0.57569   0.73759   -0.462378           
         O         O         0.52109   0.02533   0.72915   -0.437612           
         O         O         0.71975   0.00325   0.73657   -0.431981           
         O         O         0.51086   0.81135   0.78810   -0.442536           
         O         O         0.36258   0.69184   0.77066   -0.313140           
         O         O         0.23213   0.60652   0.61360   -0.327397           
         O         O         0.91925   0.95438   0.75389   -0.328115 

