
##########################################################################
#               Crystallographic Information Format file
#               Produced by PyCifRW module
#
#  This is a CIF file.  CIF has been adopted by the International
#  Union of Crystallography as the standard for data archiving and
#  transmission.
#
#  For information on this file format, follow the CIF links at
#  http://www.iucr.org
##########################################################################

data_image0

_cell_length_a                          30.0393
_cell_length_b                          30.1348
_cell_length_c                          8.31324
_cell_angle_alpha                       94.7604
_cell_angle_beta                        118.659
_cell_angle_gamma                       120.11
_symmetry_space_group_name_H-M          'P 1'
_space_group_name_Hall                  'P 1'
loop_
  _atom_site_type_symbol
  _atom_site_label
  _atom_site_fract_x
  _atom_site_fract_y
  _atom_site_fract_z
  _atom_site_charge
         H         H         0.64990   0.57676   0.87417   0.095206  
         H         H         0.38398   0.06736   0.87053   0.092252  
         H         H         0.89064   0.31394   0.85321   0.105729  
         H         H         0.30002   0.39203   0.82203   0.091736  
         H         H         0.56324   0.90681   0.85029   0.097556  
         H         H         0.05175   0.64754   0.85757   0.093461  
         H         H         0.35133   0.42653   0.09560   0.100980  
         H         H         0.61138   0.92852   0.12031   0.093282  
         H         H         0.10681   0.68342   0.12956   0.103468  
         H         H         0.70098   0.60662   0.14659   0.094107  
         H         H         0.43647   0.09131   0.14026   0.100618  
         H         H         0.94605   0.34231   0.12443   0.094046  
         H         H         0.50533   0.63723   0.02952   0.121662  
         H         H         0.55855   0.59688   0.03391   0.104318  
         H         H         0.40828   0.44046   0.96383   0.110400  
         O         O         0.65656   0.52101   -0.00008  -0.146255           
         C         C         0.68448   0.57681   0.00830   -0.183675           
         H         H         0.72575   0.58909   0.00961   0.123835  
         O         O         0.30106   0.56455   0.00545   -0.474472           
         N         N         0.39381   0.58299   0.99593   -0.218297           
         C         C         0.31841   0.61299   0.00927   0.350573  
         C         C         0.40809   0.63332   0.00222   0.117880  
         C         C         0.42609   0.56257   0.99339   0.114481  
         C         C         0.48366   0.59396   0.01431   -0.173797           
         C         C         0.51392   0.57067   0.01696   -0.156828           
         C         C         0.48795   0.51484   -0.00222  0.070870  
         C         C         0.43002   0.48352   0.97785   -0.269202           
         C         C         0.39942   0.50636   0.97449   0.172568  
         C         C         0.37341   0.65003   0.00979   -0.239372           
         H         H         0.36970   0.86392   0.00482   0.118576  
         H         H         0.41147   0.95784   0.01326   0.104899  
         H         H         0.55004   0.96515   0.95580   0.110889  
         O         O         0.48172   0.13391   0.01534   -0.147572           
         C         C         0.42675   0.10461   0.01611   -0.183444           
         H         H         0.41872   0.13540   0.04036   0.131460  
         O         O         0.44232   0.73744   0.01510   -0.473727           
         N         N         0.41722   0.80828   0.98549   -0.224462           
         C         C         0.39340   0.70551   0.01089   0.359964  
         C         C         0.36827   0.77233   0.98958   0.129824  
         C         C         0.43586   0.86022   0.97850   0.108409  
         C         C         0.40846   0.88544   0.99037   -0.167670           
         C         C         0.43253   0.93916   0.99471   -0.145603           
         C         C         0.48422   0.96987   0.98410   0.070365  
         C         C         0.51116   0.94388   0.96940   -0.272222           
         C         C         0.48812   0.89057   0.96834   0.156414  
         C         C         0.35474   0.72206   0.00262   -0.242160           
         H         H         0.14975   0.51142   0.06071   0.121855  
         H         H         0.05449   0.45713   0.05133   0.102695  
         H         H         0.02923   0.58474   0.98631   0.104991  
         O         O         0.87054   0.34750   0.01495   -0.145300           
         C         C         0.89519   0.31920   0.99408   -0.186654           
         H         H         0.86526   0.27756   0.98806   0.118081  
         O         O         0.26711   0.70258   -0.00138  -0.475130           
         N         N         0.19694   0.61148   0.02408   -0.219354           
         C         C         0.29967   0.68671   0.00462   0.357355  
         C         C         0.23281   0.59802   0.02137   0.116248  
         C         C         0.14426   0.57900   0.02624   0.118661  
         C         C         0.12298   0.52738   0.04155   -0.169435           
         C         C         0.06850   0.49654   0.03594   -0.149843           
         C         C         0.03275   0.51576   0.01498   0.079926  
         C         C         0.05534   0.56834   0.00373   -0.255592           
         C         C         0.10966   0.59948   0.00933   0.171412  
         C         C         0.28338   0.63301   0.01257   -0.247753           
         H         H         0.51076   0.37294   0.01759   0.120626  
         H         H         0.45934   0.41429   0.02037   0.104053  
         H         H         0.58815   0.55701   0.97427   0.111771  
         O         O         0.34236   0.47811   0.95032   -0.146884           
         C         C         0.31602   0.42370   0.95439   -0.185476           
         H         H         0.27420   0.41165   0.94923   0.122898  
         O         O         0.70557   0.43707   0.00095   -0.476068           
         N         N         0.61223   0.42014   0.00053   -0.217345           
         C         C         0.68700   0.38830   -0.00377  0.351485  
         C         C         0.59749   0.36999   -0.00089  0.118584  
         C         C         0.58068   0.44146   0.00234   0.117082  
         C         C         0.52784   0.41324   0.00725   -0.173990           
         C         C         0.49805   0.43680   0.00616   -0.152705           
         C         C         0.51885   0.48931   0.99594   0.065356  
         C         C         0.57184   0.51742   0.98918   -0.268190           
         C         C         0.60320   0.49499   -0.00313  0.168133  
         C         C         0.63160   0.35216   0.99455   -0.239830           
         H         H         0.63375   0.13816   0.01623   0.121491  
         H         H         0.59077   0.04366   0.00052   0.105951  
         H         H         0.43909   0.02901   0.99122   0.111573  
         O         O         0.51248   0.86297   0.95997   -0.146997           
         C         C         0.56967   0.89234   0.97099   -0.184889           
         H         H         0.57680   0.86077   0.94809   0.131699  
         O         O         0.56193   0.26581   0.99282   -0.473443           
         N         N         0.58328   0.19220   0.01504   -0.223634           
         C         C         0.61058   0.29660   0.99482   0.361274  
         C         C         0.63267   0.22761   0.01153   0.128807  
         C         C         0.56248   0.13922   0.01529   0.107694  
         C         C         0.59151   0.11478   0.01350   -0.169393           
         C         C         0.56630   0.06036   0.00286   -0.144622           
         C         C         0.51050   0.02734   0.99233   0.075198  
         C         C         0.48159   0.05229   0.99570   -0.270170           
         C         C         0.50705   0.10704   0.00946   0.155708  
         C         C         0.64793   0.27853   0.00128   -0.239394           
         H         H         0.86152   0.49120   0.97940   0.120554  
         H         H         0.95686   0.54475   0.98917   0.100088  
         H         H         0.97403   0.41155   0.01884   0.105764  
         O         O         0.13299   0.65008   0.99349   -0.140942           
         C         C         0.10294   0.67493   0.99045   -0.182398           
         H         H         0.12951   0.71495   0.98179   0.115508  
         O         O         0.73548   0.29654   0.00695   -0.473828           
         N         N         0.80950   0.38863   0.99429   -0.219394           
         C         C         0.70356   0.31319   0.00078   0.356600  
         C         C         0.77326   0.40232   0.99186   0.115960  
         C         C         0.86289   0.42091   0.99554   0.122106  
         C         C         0.88628   0.47371   0.98926   -0.168741           
         C         C         0.94070   0.50401   0.99469   -0.143211           
         C         C         0.97439   0.48318   0.00651   0.078819  
         C         C         0.95002   0.42962   0.01038   -0.258051           
         C         C         0.89578   0.39911   0.00589   0.166244  
         C         C         0.72134   0.36735   0.99463   -0.248710           
         H         H         0.35334   0.55836   0.99376   0.269811  
         H         H         0.44806   0.66259   -0.00046  0.098769  
         H         H         0.44280   0.79348   0.99162   0.268646  
         H         H         0.33727   0.78230   0.98120   0.099101  
         H         H         0.21091   0.65030   0.01572   0.270519  
         H         H         0.22274   0.55830   0.02683   0.099831  
         H         H         0.65265   0.44365   0.00143   0.271105  
         H         H         0.55724   0.34162   0.00184   0.099055  
         H         H         0.55856   0.20788   0.00947   0.269838  
         H         H         0.66262   0.21655   0.01735   0.099148  
         H         H         0.79408   0.34927   -0.00111  0.270423  
         H         H         0.78422   0.44234   0.98744   0.099080  
         H         H         0.64309   0.57144   0.37784   0.098424  
         H         H         0.38736   0.06854   0.36610   0.091960  
         H         H         0.89118   0.31907   0.35384   0.108369  
         H         H         0.29317   0.39278   0.31795   0.094664  
         H         H         0.56423   0.90621   0.36076   0.101876  
         H         H         0.05179   0.65307   0.35685   0.093357  
         H         H         0.34288   0.42025   0.59085   0.097832  
         H         H         0.61611   0.93724   0.63366   0.092415  
         H         H         0.10722   0.68873   0.62878   0.102223  
         H         H         0.69529   0.60464   0.65075   0.091432  
         H         H         0.43372   0.09228   0.63632   0.099956  
         H         H         0.94640   0.34826   0.62566   0.093533  
         H         H         0.49431   0.63032   0.49570   0.122088  
         H         H         0.54412   0.58767   0.48940   0.103534  
         H         H         0.40529   0.43970   0.48947   0.110618  
         O         O         0.65262   0.51887   0.51728   -0.145621           
         C         C         0.67877   0.57354   0.51569   -0.186956           
         H         H         0.71994   0.58564   0.51661   0.126628  
         O         O         0.29702   0.56483   0.50387   -0.473578           
         N         N         0.38956   0.58172   0.49824   -0.218315           
         C         C         0.31554   0.61369   0.50971   0.347838  
         C         C         0.40437   0.63203   0.50150   0.119349  
         C         C         0.42018   0.55979   0.49184   0.117943  
         C         C         0.47448   0.58850   0.49443   -0.173589           
         C         C         0.50312   0.56394   0.49234   -0.155157           
         C         C         0.47957   0.50983   0.49001   0.068383  
         C         C         0.42473   0.48104   0.48754   -0.268832           
         C         C         0.39492   0.50474   0.48510   0.168920  
         C         C         0.37068   0.64990   0.50996   -0.238621           
         H         H         0.35578   0.85559   0.42606   0.123981  
         H         H         0.39790   0.94997   0.43510   0.105381  
         H         H         0.56203   0.97255   0.51750   0.112649  
         O         O         0.48585   0.13611   0.53023   -0.145660           
         C         C         0.42767   0.10577   0.51344   -0.183510           
         H         H         0.41817   0.13604   0.52655   0.130328  
         O         O         0.44012   0.73664   0.51286   -0.474092           
         N         N         0.41451   0.80707   0.47192   -0.227202           
         C         C         0.39116   0.70531   0.50910   0.360342  
         C         C         0.36595   0.77211   0.47950   0.130513  
         C         C         0.43370   0.85899   0.46387   0.113333  
         C         C         0.40094   0.88101   0.44542   -0.169260           
         C         C         0.42559   0.93514   0.45323   -0.145786           
         C         C         0.48457   0.97015   0.48277   0.075684  
         C         C         0.51671   0.94732   0.49665   -0.271273           
         C         C         0.49145   0.89265   0.48283   0.156052  
         C         C         0.35271   0.72245   0.49839   -0.240101           
         H         H         0.14496   0.51302   0.55090   0.120885  
         H         H         0.05024   0.46008   0.54447   0.101019  
         H         H         0.02893   0.59031   0.49084   0.104642  
         O         O         0.86917   0.35118   0.51188   -0.145116           
         C         C         0.89546   0.32417   0.49428   -0.186879           
         H         H         0.86645   0.28243   0.48938   0.117510  
         O         O         0.26540   0.70428   0.49432   -0.474186           
         N         N         0.19388   0.61345   0.51848   -0.218857           
         C         C         0.29781   0.68801   0.50238   0.357715  
         C         C         0.23041   0.60002   0.52140   0.116208  
         C         C         0.14129   0.58165   0.52133   0.120951  
         C         C         0.11923   0.52987   0.53543   -0.168628           
         C         C         0.06510   0.49985   0.53153   -0.142921           
         C         C         0.03040   0.52002   0.51366   0.078339  
         C         C         0.05378   0.57283   0.50384   -0.258880           
         C         C         0.10765   0.60301   0.50649   0.170441  
         C         C         0.28128   0.63454   0.51347   -0.247121           
         H         H         0.49848   0.36499   0.48818   0.120167  
         H         H         0.44515   0.40514   0.48312   0.105132  
         H         H         0.58468   0.55492   0.49210   0.110279  
         O         O         0.34027   0.47860   0.47505   -0.145596           
         C         C         0.30989   0.42192   0.45841   -0.188186           
         H         H         0.26843   0.41019   0.45509   0.125991  
         O         O         0.70041   0.43624   0.49960   -0.472285           
         N         N         0.60629   0.41684   0.50102   -0.220760           
         C         C         0.68329   0.38789   0.49642   0.349947  
         C         C         0.59256   0.36686   0.49803   0.118714  
         C         C         0.57331   0.43689   0.49931   0.115052  
         C         C         0.51771   0.40679   0.48969   -0.173186           
         C         C         0.48707   0.42985   0.48504   -0.157254           
         C         C         0.51024   0.48399   0.48811   0.068160  
         C         C         0.56583   0.51375   0.49488   -0.268795           
         C         C         0.59735   0.49150   0.50335   0.172594  
         C         C         0.62796   0.35058   0.49407   -0.236327           
         H         H         0.62710   0.13399   0.47818   0.119083  
         H         H         0.58285   0.03879   0.45880   0.106597  
         H         H         0.44702   0.03310   0.52833   0.112450  
         O         O         0.51969   0.86759   0.49233   -0.147361           
         C         C         0.57531   0.89735   0.49503   -0.179261           
         H         H         0.58730   0.86861   0.49156   0.129957  
         O         O         0.55899   0.26306   0.48788   -0.473691           
         N         N         0.58264   0.19146   0.51048   -0.224829           
         C         C         0.60797   0.29508   0.49257   0.359779  
         C         C         0.63233   0.22775   0.50994   0.129397  
         C         C         0.56234   0.13863   0.51060   0.108217  
         C         C         0.58849   0.11262   0.49331   -0.165300           
         C         C         0.56318   0.05827   0.48328   -0.148282           
         C         C         0.51137   0.02777   0.49338   0.071107  
         C         C         0.48534   0.05424   0.51217   -0.272794           
         C         C         0.50954   0.10815   0.51824   0.154631  
         C         C         0.64661   0.27852   0.50040   -0.241164           
         H         H         0.85614   0.49267   0.46520   0.121703  
         H         H         0.95174   0.54713   0.47621   0.098114  
         H         H         0.97354   0.41708   0.52376   0.107183  
         O         O         0.13174   0.65366   0.49056   -0.143520           
         C         C         0.10302   0.67971   0.48921   -0.182330           
         H         H         0.13038   0.71958   0.48097   0.116265  
         O         O         0.73511   0.29877   0.50807   -0.472712           
         N         N         0.80679   0.39101   0.49081   -0.216342           
         C         C         0.70230   0.31436   0.50152   0.357465  
         C         C         0.77017   0.40387   0.49052   0.114937  
         C         C         0.85991   0.42384   0.49089   0.118789  
         C         C         0.88217   0.47615   0.48052   -0.170033           
         C         C         0.93682   0.50709   0.48700   -0.148049           
         C         C         0.97191   0.48739   0.50446   0.081651  
         C         C         0.94832   0.43415   0.51056   -0.257303           
         C         C         0.89368   0.40279   0.50331   0.171192  
         C         C         0.71890   0.36831   0.49569   -0.247946           
         H         H         0.34932   0.55814   0.49813   0.269707  
         H         H         0.44395   0.66024   0.49571   0.099246  
         H         H         0.44065   0.79242   0.48410   0.270083  
         H         H         0.33528   0.78260   0.47037   0.099120  
         H         H         0.20787   0.65198   0.50796   0.268613  
         H         H         0.22055   0.56066   0.53055   0.099247  
         H         H         0.64694   0.44140   0.50371   0.270531  
         H         H         0.55235   0.33752   0.49954   0.098098  
         H         H         0.55748   0.20672   0.50532   0.267823  
         H         H         0.66331   0.21774   0.51840   0.099319  
         H         H         0.79258   0.35199   0.49755   0.267933  
         H         H         0.78011   0.44355   0.48503   0.100579 

