
##########################################################################
#               Crystallographic Information Format file
#               Produced by PyCifRW module
#
#  This is a CIF file.  CIF has been adopted by the International
#  Union of Crystallography as the standard for data archiving and
#  transmission.
#
#  For information on this file format, follow the CIF links at
#  http://www.iucr.org
##########################################################################

data_image0

_cell_length_a                          30.2458
_cell_length_b                          30.2955
_cell_length_c                          7.81559
_cell_angle_alpha                       111.874
_cell_angle_beta                        119.066
_cell_angle_gamma                       59.0612
_symmetry_space_group_name_H-M          'P 1'
_space_group_name_Hall                  'P 1'
loop_
  _atom_site_type_symbol
  _atom_site_label
  _atom_site_fract_x
  _atom_site_fract_y
  _atom_site_fract_z
  _atom_site_charge
         N         N         0.40190   0.40370   0.15726   -0.240444           
         C         C         0.41027   0.35469   0.14313   0.136600  
         C         C         0.43461   0.42526   0.16994   0.183757  
         C         C         0.49313   0.40822   0.25437   -0.012738           
         C         C         0.51760   0.43799   0.26313   -0.173392           
         C         C         0.48676   0.48523   0.19110   0.056828  
         C         C         0.42856   0.50222   0.10783   -0.094509           
         C         C         0.40384   0.47320   0.09855   -0.165898           
         H         H         0.44718   0.32186   0.12251   0.119507  
         H         H         0.36200   0.42959   0.16332   0.265515  
         H         H         0.35896   0.48631   0.02862   0.144485  
         H         H         0.56249   0.42261   0.33296   0.123840  
         H         H         0.40208   0.53777   0.04324   0.121403  
         N         N         0.53233   0.36138   0.34977   0.525451  
         O         O         0.51362   0.33937   0.38737   -0.332625           
         O         O         0.58261   0.34721   0.39442   -0.320175           
         N         N         0.59566   0.59580   0.20388   -0.231417           
         C         C         0.58455   0.64411   0.19511   0.114749  
         C         C         0.56564   0.57407   0.20922   0.172443  
         C         C         0.50914   0.59667   0.18320   -0.016968           
         C         C         0.48402   0.56777   0.17503   -0.177475           
         C         C         0.51388   0.51526   0.19938   0.061703  
         C         C         0.57058   0.49254   0.22814   -0.106004           
         C         C         0.59522   0.52092   0.23185   -0.157051           
         H         H         0.54549   0.67658   0.19760   0.109524  
         H         H         0.63593   0.57021   0.20045   0.264219  
         H         H         0.63884   0.50218   0.25135   0.143858  
         H         H         0.44043   0.58819   0.15546   0.130001  
         H         H         0.59578   0.45162   0.24431   0.124820  
         N         N         0.47245   0.65165   0.16112   0.527165  
         O         O         0.48628   0.68543   0.29600   -0.305767           
         O         O         0.42919   0.66048   0.01094   -0.318416           
         N         N         0.19392   0.40561   0.20518   -0.240567           
         C         C         0.23135   0.41573   0.19839   0.125354  
         C         C         0.14156   0.43650   0.21544   0.170150  
         C         C         0.11571   0.49126   0.26624   -0.019115           
         C         C         0.06174   0.51652   0.26422   -0.173365           
         C         C         0.03070   0.48855   0.21330   0.063452  
         C         C         0.05611   0.43388   0.16134   -0.107813           
         C         C         0.10950   0.40897   0.16303   -0.162601           
         H         H         0.22407   0.45529   0.20539   0.106943  
         H         H         0.20915   0.36425   0.19048   0.263011  
         H         H         0.12754   0.36691   0.11736   0.142227  
         H         H         0.04547   0.55857   0.31117   0.134192  
         H         H         0.03308   0.41049   0.11332   0.123466  
         N         N         0.14437   0.52517   0.33233   0.525367  
         O         O         0.19108   0.51281   0.46530   -0.305488           
         O         O         0.11906   0.56451   0.25256   -0.323434           
         N         N         0.80538   0.59176   0.16450   -0.221341           
         C         C         0.76506   0.58311   0.15797   0.115806  
         C         C         0.85994   0.56116   0.17711   0.182088  
         C         C         0.89485   0.50792   0.19863   -0.011387           
         C         C         0.94969   0.48628   0.21316   -0.176996           
         C         C         0.97350   0.51446   0.20731   0.055589  
         C         C         0.93909   0.56717   0.18417   -0.101400           
         C         C         0.88465   0.58906   0.16906   -0.175687           
         H         H         0.77152   0.54391   0.14982   0.117978  
         H         H         0.79026   0.63223   0.16633   0.259931  
         H         H         0.85850   0.62945   0.14600   0.141899  
         H         H         0.97363   0.44566   0.23207   0.122015  
         H         H         0.95433   0.59082   0.17033   0.121748  
         N         N         0.87915   0.47043   0.20820   0.525569  
         O         O         0.84106   0.48738   0.26837   -0.332974           
         O         O         0.90631   0.42339   0.16256   -0.313676           
         N         N         0.40533   0.18993   0.16497   -0.227939           
         C         C         0.35559   0.22921   0.15636   0.135071  
         C         C         0.42707   0.13678   0.16258   0.175686  
         C         C         0.40108   0.10596   0.13844   -0.016370           
         C         C         0.42992   0.05209   0.13391   -0.175469           
         C         C         0.48568   0.02592   0.15553   0.056483  
         C         C         0.51174   0.05590   0.17531   -0.108821           
         C         C         0.48306   0.10923   0.17688   -0.165004           
         H         H         0.32357   0.22221   0.15411   0.111269  
         H         H         0.43064   0.20456   0.16579   0.266723  
         H         H         0.50354   0.13158   0.18793   0.139340  
         H         H         0.40779   0.03099   0.11912   0.128442  
         H         H         0.55462   0.03701   0.18571   0.122241  
         N         N         0.34343   0.12613   0.12054   0.527776  
         O         O         0.32720   0.16454   0.24301   -0.330233           
         O         O         0.31569   0.10185   0.98986   -0.305020           
         N         N         0.58936   0.80793   0.17891   -0.245640           
         C         C         0.63912   0.76983   0.18448   0.145153  
         C         C         0.56867   0.86082   0.17892   0.181393  
         C         C         0.59721   0.89361   0.29071   -0.016762           
         C         C         0.57072   0.94661   0.27716   -0.173598           
         C         C         0.51469   0.96944   0.15874   0.059727  
         C         C         0.48608   0.93681   0.04831   -0.102876           
         C         C         0.51253   0.88408   0.05758   -0.162422           
         H         H         0.66964   0.77811   0.18083   0.117660  
         H         H         0.56383   0.79210   0.17094   0.270424  
         H         H         0.49074   0.85877   0.96772   0.142420  
         H         H         0.59464   0.96989   0.37003   0.130959  
         H         H         0.44281   0.95290   0.95075   0.120514  
         N         N         0.65360   0.87625   0.44258   0.525514  
         O         O         0.66935   0.83907   0.52112   -0.342208           
         O         O         0.68092   0.90128   0.48942   -0.313383           
         C         C         0.67620   0.61150   0.17540   0.349887  
         C         C         0.62391   0.65356   0.18676   -0.242613           
         O         O         0.68785   0.56454   0.17334   -0.450286           
         C         C         0.61002   0.70739   0.18734   0.352029  
         C         C         0.65076   0.71891   0.18447   -0.239036           
         O         O         0.56320   0.74309   0.19148   -0.433495           
         C         C         0.70391   0.67798   0.17536   0.356593  
         C         C         0.71543   0.62437   0.16731   -0.234295           
         O         O         0.73888   0.68865   0.17173   -0.444171           
         C         C         0.31993   0.38753   0.17371   0.351487  
         C         C         0.37110   0.34507   0.15171   -0.251978           
         O         O         0.30992   0.43479   0.18938   -0.439017           
         C         C         0.38519   0.29104   0.14942   0.354281  
         C         C         0.34481   0.27967   0.15534   -0.233670           
         O         O         0.43183   0.25515   0.14480   -0.449260           
         C         C         0.29180   0.32078   0.16628   0.356055  
         C         C         0.28029   0.37464   0.17840   -0.238126           
         O         O         0.25727   0.30956   0.17075   -0.439099           
         N         N         0.40137   0.40195   0.65857   -0.236663           
         C         C         0.41016   0.35303   0.64675   0.134375  
         C         C         0.43412   0.42359   0.67231   0.182970  
         C         C         0.49263   0.40651   0.75656   -0.013698           
         C         C         0.51710   0.43614   0.76434   -0.173334           
         C         C         0.48611   0.48349   0.69292   0.059324  
         C         C         0.42793   0.50057   0.61047   -0.095251           
         C         C         0.40325   0.47151   0.60098   -0.166253           
         H         H         0.44780   0.32039   0.63137   0.120545  
         H         H         0.36093   0.42763   0.65979   0.264556  
         H         H         0.35839   0.48460   0.53152   0.145310  
         H         H         0.56200   0.42075   0.83358   0.124134  
         H         H         0.40149   0.53634   0.54726   0.122413  
         N         N         0.53179   0.35998   0.85385   0.528566  
         O         O         0.51295   0.33881   0.89506   -0.336319           
         O         O         0.58204   0.34541   0.89724   -0.318075           
         N         N         0.59399   0.59464   0.70412   -0.233258           
         C         C         0.58371   0.64309   0.70008   0.111985  
         C         C         0.56422   0.57310   0.71176   0.177643  
         C         C         0.50785   0.59565   0.68786   -0.022495           
         C         C         0.48312   0.56648   0.68054   -0.175993           
         C         C         0.51301   0.51377   0.70180   0.060150  
         C         C         0.56959   0.49116   0.72890   -0.106353           
         C         C         0.59395   0.51983   0.73290   -0.159453           
         H         H         0.54575   0.67605   0.71149   0.110995  
         H         H         0.63339   0.56857   0.69293   0.262311  
         H         H         0.63744   0.50136   0.75079   0.143499  
         H         H         0.43989   0.58721   0.66555   0.128848  
         H         H         0.59492   0.45020   0.74416   0.125103  
         N         N         0.47122   0.65077   0.66962   0.525652  
         O         O         0.48665   0.68413   0.80136   -0.307703           
         O         O         0.42634   0.66019   0.52581   -0.319746           
         N         N         0.19259   0.40311   0.69837   -0.240837           
         C         C         0.22981   0.41324   0.68971   0.123203  
         C         C         0.14019   0.43369   0.70788   0.173987  
         C         C         0.11390   0.48851   0.75707   -0.020315           
         C         C         0.05996   0.51319   0.75527   -0.174068           
         C         C         0.02966   0.48477   0.70798   0.061063  
         C         C         0.05557   0.43008   0.65807   -0.107394           
         C         C         0.10878   0.40566   0.65840   -0.163819           
         H         H         0.22175   0.45264   0.69055   0.105512  
         H         H         0.20828   0.36206   0.68928   0.264551  
         H         H         0.12720   0.36352   0.61500   0.142556  
         H         H         0.04311   0.55532   0.79932   0.136719  
         H         H         0.03304   0.40644   0.61383   0.127876  
         N         N         0.14190   0.52303   0.82246   0.523437  
         O         O         0.18998   0.50956   0.94689   -0.308459           
         O         O         0.11479   0.56406   0.75154   -0.325693           
         N         N         0.80501   0.58762   0.66734   -0.225782           
         C         C         0.76405   0.57953   0.65833   0.123771  
         C         C         0.85955   0.55689   0.67926   0.187664  
         C         C         0.89454   0.50357   0.69969   -0.010751           
         C         C         0.94921   0.48197   0.71177   -0.173791           
         C         C         0.97274   0.51026   0.70469   0.053962  
         C         C         0.93829   0.56309   0.68372   -0.101424           
         C         C         0.88410   0.58495   0.67096   -0.176693           
         H         H         0.76955   0.54047   0.64763   0.117927  
         H         H         0.79030   0.62805   0.66983   0.259803  
         H         H         0.85804   0.62552   0.65008   0.141593  
         H         H         0.97322   0.44123   0.72900   0.121441  
         H         H         0.95340   0.58686   0.66987   0.122480  
         N         N         0.87899   0.46613   0.71056   0.529213  
         O         O         0.84024   0.48329   0.76764   -0.337347           
         O         O         0.90660   0.41905   0.66759   -0.314356           
         N         N         0.40624   0.18825   0.66841   -0.224972           
         C         C         0.35650   0.22733   0.66153   0.134115  
         C         C         0.42824   0.13507   0.66552   0.173574  
         C         C         0.40229   0.10407   0.63962   -0.013777           
         C         C         0.43094   0.05018   0.63361   -0.178857           
         C         C         0.48676   0.02400   0.65596   0.057969  
         C         C         0.51286   0.05419   0.67768   -0.109530           
         C         C         0.48427   0.10760   0.68057   -0.164541           
         H         H         0.32489   0.22045   0.66293   0.109741  
         H         H         0.43107   0.20323   0.66743   0.264368  
         H         H         0.50482   0.13014   0.69374   0.140175  
         H         H         0.40854   0.02920   0.61758   0.129333  
         H         H         0.55577   0.03548   0.68875   0.122079  
         N         N         0.34463   0.12419   0.62054   0.525320  
         O         O         0.32889   0.16154   0.74687   -0.328071           
         O         O         0.31646   0.10088   0.48543   -0.304214           
         N         N         0.59001   0.80585   0.68047   -0.247411           
         C         C         0.63955   0.76728   0.68484   0.146896  
         C         C         0.56935   0.85876   0.67946   0.180908  
         C         C         0.59807   0.89142   0.79058   -0.013069           
         C         C         0.57172   0.94441   0.77682   -0.173591           
         C         C         0.51568   0.96746   0.65881   0.062634  
         C         C         0.48695   0.93493   0.54796   -0.106108           
         C         C         0.51319   0.88219   0.55774   -0.163295           
         H         H         0.67030   0.77517   0.68085   0.118143  
         H         H         0.56442   0.79049   0.67488   0.271250  
         H         H         0.49111   0.85713   0.46736   0.144429  
         H         H         0.59580   0.96761   0.86793   0.130034  
         H         H         0.44380   0.95117   0.44941   0.121055  
         N         N         0.65502   0.87374   0.93952   0.525030  
         O         O         0.67118   0.83703   0.02110   -0.341334           
         O         O         0.68252   0.89806   0.97988   -0.311837           
         C         C         0.67433   0.60907   0.67029   0.346071  
         C         C         0.62292   0.65179   0.68738   -0.239353           
         O         O         0.68444   0.56197   0.65960   -0.450207           
         C         C         0.60998   0.70554   0.69045   0.353039  
         C         C         0.65082   0.71644   0.68516   -0.240872           
         O         O         0.56371   0.74171   0.69803   -0.434236           
         C         C         0.70381   0.67489   0.67622   0.358020  
         C         C         0.71456   0.62140   0.66710   -0.236924           
         O         O         0.73931   0.68495   0.67329   -0.446086           
         C         C         0.31887   0.38548   0.66944   0.352609  
         C         C         0.37061   0.34328   0.65197   -0.252157           
         O         O         0.30813   0.43268   0.68050   -0.438644           
         C         C         0.38505   0.28931   0.65045   0.353487  
         C         C         0.34507   0.27776   0.65788   -0.233216           
         O         O         0.43179   0.25362   0.64582   -0.447898           
         C         C         0.29196   0.31862   0.66882   0.356370  
         C         C         0.27946   0.37244   0.67537   -0.237148           
         O         O         0.25807   0.30721   0.67656   -0.439384 

