
##########################################################################
#               Crystallographic Information Format file
#               Produced by PyCifRW module
#
#  This is a CIF file.  CIF has been adopted by the International
#  Union of Crystallography as the standard for data archiving and
#  transmission.
#
#  For information on this file format, follow the CIF links at
#  http://www.iucr.org
##########################################################################

data_image0

_cell_length_a                          29.431
_cell_length_b                          29.4144
_cell_length_c                          8.03124
_cell_angle_alpha                       123.441
_cell_angle_beta                        74.3705
_cell_angle_gamma                       119.895
_symmetry_space_group_name_H-M          'P 1'
_space_group_name_Hall                  'P 1'
loop_
  _atom_site_type_symbol
  _atom_site_label
  _atom_site_fract_x
  _atom_site_fract_y
  _atom_site_fract_z
  _atom_site_charge
         C         C         0.54919   0.54967   0.74631   0.039261  
         C         C         0.54942   0.50106   0.74844   0.037146  
         C         C         0.49973   0.45116   0.74891   0.035216  
         C         C         0.45070   0.44999   0.74134   0.040466  
         C         C         0.45048   0.49978   0.74151   0.037430  
         C         C         0.49932   0.54909   0.74321   0.033269  
         C         C         0.40409   0.40118   0.73403   -0.190378           
         C         C         0.40320   0.35334   0.73732   0.160880  
         C         C         0.45186   0.35480   0.74739   0.158167  
         C         C         0.49896   0.40408   0.75299   -0.185258           
         C         C         0.59673   0.59648   0.74517   -0.195768           
         C         C         0.64518   0.59774   0.74538   0.164704  
         C         C         0.64545   0.54917   0.74562   0.160989  
         C         C         0.59728   0.50210   0.74797   -0.193589           
         C         C         0.49835   0.59582   0.74285   -0.186119           
         C         C         0.45105   0.59630   0.73959   0.158701  
         C         C         0.40242   0.54744   0.73872   0.159698  
         C         C         0.40362   0.50046   0.74087   -0.185241           
         N         N         0.45300   0.30977   0.75098   -0.294046           
         C         C         0.40707   0.26417   0.74412   0.131205  
         C         C         0.35821   0.26282   0.73392   0.130185  
         N         N         0.35670   0.30689   0.73042   -0.297381           
         N         N         0.69108   0.54807   0.74424   -0.290397           
         C         C         0.73548   0.59387   0.74213   0.131637  
         C         C         0.73522   0.64276   0.74190   0.135957  
         N         N         0.69049   0.64417   0.74340   -0.292983           
         N         N         0.35577   0.54595   0.73665   -0.294290           
         C         C         0.35714   0.59175   0.73499   0.128049  
         C         C         0.40607   0.64088   0.73583   0.134810  
         N         N         0.45209   0.64264   0.73784   -0.294296           
         H         H         0.36626   0.39758   0.72385   0.130100  
         H         H         0.53479   0.40356   0.76229   0.125277  
         H         H         0.59839   0.63358   0.74117   0.126470  
         H         H         0.59937   0.46664   0.75032   0.125063  
         H         H         0.53411   0.63391   0.74447   0.125738  
         H         H         0.36589   0.46492   0.74311   0.129918  
         C         C         0.11650   0.78176   0.72684   0.038009  
         C         C         0.11660   0.83053   0.72443   0.037511  
         C         C         0.16648   0.87962   0.72027   0.038151  
         C         C         0.21532   0.87991   0.72443   0.033739  
         C         C         0.21521   0.82996   0.72431   0.038356  
         C         C         0.16621   0.78142   0.72675   0.036130  
         C         C         0.26218   0.92811   0.72900   -0.181692           
         C         C         0.26353   0.97595   0.72452   0.157489  
         C         C         0.21499   0.97510   0.71678   0.160672  
         C         C         0.16766   0.92680   0.71578   -0.187318           
         C         C         0.06870   0.73561   0.73049   -0.191832           
         C         C         0.02053   0.73512   0.73140   0.156906  
         C         C         0.02057   0.78382   0.73096   0.164447  
         C         C         0.06899   0.83042   0.72731   -0.193846           
         C         C         0.16692   0.73465   0.72804   -0.185868           
         C         C         0.21408   0.73335   0.72805   0.156958  
         C         C         0.26276   0.78149   0.72489   0.162305  
         C         C         0.26188   0.82840   0.72138   -0.185917           
         N         N         0.21401   0.02001   0.71222   -0.294685           
         C         C         0.26010   0.06504   0.71677   0.131987  
         C         C         0.30896   0.06602   0.72530   0.131781  
         N         N         0.31026   0.02183   0.72873   -0.296711           
         N         N         0.97510   0.78535   0.73266   -0.291279           
         C         C         0.93046   0.73976   0.73491   0.133568  
         C         C         0.93049   0.69083   0.73554   0.132987  
         N         N         0.97502   0.68906   0.73409   -0.288850           
         N         N         0.30935   0.78281   0.72636   -0.299656           
         C         C         0.30791   0.73754   0.73157   0.132445  
         C         C         0.25898   0.68887   0.73339   0.131977  
         N         N         0.21297   0.68729   0.73205   -0.296006           
         H         H         0.29989   0.93131   0.73821   0.128457  
         H         H         0.13211   0.92854   0.71071   0.125096  
         H         H         0.06632   0.69829   0.73537   0.125310  
         H         H         0.06735   0.86623   0.72557   0.125810  
         H         H         0.13112   0.69735   0.73135   0.125884  
         H         H         0.29975   0.86319   0.71569   0.129035  
         C         C         0.88073   0.73964   0.73572   -0.007818           
         C         C         0.83284   0.69144   0.73841   0.005165  
         C         C         0.83299   0.64234   0.73875   0.003178  
         C         C         0.88100   0.64172   0.73769   -0.004012           
         C         C         0.78519   0.59404   0.74076   -0.002280           
         C         C         0.78473   0.69191   0.73926   -0.006010           
         C         C         0.78518   0.73962   0.73799   -0.102143           
         C         C         0.83238   0.78667   0.73584   -0.089052           
         C         C         0.87984   0.78665   0.73420   -0.098313           
         C         C         0.88063   0.59384   0.73757   -0.104875           
         C         C         0.83345   0.54660   0.73856   -0.086194           
         C         C         0.78602   0.54678   0.74082   -0.102873           
         H         H         0.74765   0.73820   0.73666   0.116894  
         H         H         0.83225   0.82283   0.73092   0.109608  
         H         H         0.91708   0.82245   0.72944   0.113974  
         H         H         0.91816   0.59523   0.73870   0.115853  
         H         H         0.83369   0.51018   0.74147   0.108915  
         H         H         0.74869   0.51091   0.74449   0.114827  
         C         C         0.35733   0.73786   0.73464   -0.000500           
         C         C         0.35703   0.68949   0.73485   -0.003290           
         C         C         0.30804   0.64042   0.73522   -0.002177           
         C         C         0.25937   0.63988   0.73625   -0.000223           
         C         C         0.30772   0.59178   0.73389   0.001912  
         C         C         0.40568   0.69015   0.73484   -0.001364           
         C         C         0.45278   0.73792   0.73314   -0.090097           
         C         C         0.45247   0.78515   0.73325   -0.089851           
         C         C         0.40516   0.78525   0.73399   -0.092380           
         C         C         0.21225   0.59247   0.74019   -0.093828           
         C         C         0.21259   0.54512   0.73915   -0.087108           
         C         C         0.25990   0.54447   0.73482   -0.098372           
         H         H         0.48922   0.73673   0.73155   0.113968  
         H         H         0.48925   0.82181   0.73081   0.108922  
         H         H         0.40381   0.82092   0.73007   0.112764  
         H         H         0.17582   0.59388   0.74311   0.114237  
         H         H         0.17583   0.50877   0.74363   0.107326  
         H         H         0.26129   0.50851   0.73663   0.114215  
         C         C         0.26059   0.11450   0.71426   -0.002651           
         C         C         0.30916   0.16392   0.72510   -0.001035           
         C         C         0.35806   0.16507   0.73509   -0.001609           
         C         C         0.35838   0.11665   0.73316   0.000584  
         C         C         0.40663   0.21452   0.74567   0.000657  
         C         C         0.30889   0.21206   0.72518   -0.001601           
         C         C         0.26119   0.20995   0.71197   -0.094619           
         C         C         0.21401   0.16083   0.69878   -0.089617           
         C         C         0.21359   0.11344   0.70011   -0.088753           
         C         C         0.40620   0.11852   0.74348   -0.097040           
         C         C         0.45339   0.16775   0.75709   -0.091212           
         C         C         0.45370   0.21540   0.75797   -0.092494           
         H         H         0.26267   0.24695   0.70744   0.114699  
         H         H         0.17739   0.15904   0.68437   0.109279  
         H         H         0.17726   0.07445   0.68867   0.113268  
         H         H         0.40497   0.08118   0.74487   0.114037  
         H         H         0.49009   0.16926   0.76936   0.109117  
         H         H         0.49000   0.25433   0.76841   0.114709  
         C         C         0.55012   0.55224   0.24790   0.037383  
         C         C         0.54972   0.50286   0.24720   0.034653  
         C         C         0.49964   0.45348   0.24818   0.038445  
         C         C         0.45094   0.45314   0.24181   0.033346  
         C         C         0.45139   0.50335   0.24245   0.037647  
         C         C         0.50058   0.55244   0.24444   0.039649  
         C         C         0.40390   0.40480   0.23539   -0.180690           
         C         C         0.40227   0.35662   0.23879   0.159101  
         C         C         0.45070   0.35750   0.24802   0.161005  
         C         C         0.49821   0.40618   0.25258   -0.187605           
         C         C         0.59811   0.59892   0.24930   -0.195803           
         C         C         0.64614   0.59897   0.24749   0.162781  
         C         C         0.64585   0.54948   0.24348   0.162700  
         C         C         0.59720   0.50261   0.24413   -0.191332           
         C         C         0.50007   0.59936   0.24332   -0.190382           
         C         C         0.45300   0.60049   0.24062   0.160615  
         C         C         0.40417   0.55196   0.24053   0.157830  
         C         C         0.40483   0.50465   0.24215   -0.185499           
         N         N         0.45143   0.31233   0.25154   -0.296527           
         C         C         0.40528   0.26715   0.24523   0.133698  
         C         C         0.35648   0.26622   0.23634   0.134100  
         N         N         0.35543   0.31058   0.23313   -0.300508           
         N         N         0.69126   0.54758   0.24067   -0.295802           
         C         C         0.73599   0.59343   0.24047   0.137754  
         C         C         0.73610   0.64293   0.24316   0.134447  
         N         N         0.69171   0.64529   0.24713   -0.291844           
         N         N         0.35769   0.55079   0.23860   -0.296592           
         C         C         0.35938   0.59658   0.23609   0.130506  
         C         C         0.40841   0.64538   0.23570   0.132611  
         N         N         0.45432   0.64683   0.23765   -0.293835           
         H         H         0.36634   0.40189   0.22590   0.129176  
         H         H         0.53367   0.40480   0.26108   0.125037  
         H         H         0.60050   0.63687   0.24857   0.126477  
         H         H         0.59849   0.46621   0.24321   0.126340  
         H         H         0.53601   0.63702   0.24299   0.126699  
         H         H         0.36683   0.46932   0.24392   0.129415  
         C         C         0.11752   0.78387   0.22430   0.038648  
         C         C         0.11692   0.83302   0.22682   0.035690  
         C         C         0.16634   0.88251   0.22236   0.039173  
         C         C         0.21558   0.88341   0.22576   0.035985  
         C         C         0.21632   0.83392   0.22583   0.036071  
         C         C         0.16766   0.78456   0.22490   0.036244  
         C         C         0.26200   0.93169   0.22871   -0.185636           
         C         C         0.26248   0.97932   0.22565   0.162009  
         C         C         0.21365   0.97801   0.21840   0.158061  
         C         C         0.16668   0.92915   0.21673   -0.187099           
         C         C         0.07010   0.73661   0.22379   -0.192421           
         C         C         0.02145   0.73558   0.22785   0.161682  
         C         C         0.02094   0.78501   0.23423   0.159564  
         C         C         0.06891   0.83252   0.23350   -0.194157           
         C         C         0.16907   0.73801   0.22478   -0.187324           
         C         C         0.21657   0.73785   0.22743   0.161789  
         C         C         0.26506   0.78674   0.22778   0.157920  
         C         C         0.26345   0.83354   0.22567   -0.182125           
         N         N         0.21230   0.02271   0.21338   -0.294197           
         C         C         0.25820   0.06802   0.21768   0.129903  
         C         C         0.30718   0.06935   0.22643   0.129558  
         N         N         0.30892   0.02540   0.22976   -0.297811           
         N         N         0.97526   0.78636   0.23873   -0.288317           
         C         C         0.93098   0.73995   0.23722   0.130381  
         C         C         0.93138   0.69051   0.23327   0.139330  
         N         N         0.97623   0.68879   0.22842   -0.294791           
         N         N         0.31185   0.78854   0.23047   -0.296632           
         C         C         0.31067   0.74294   0.23305   0.129860  
         C         C         0.26181   0.69380   0.23249   0.133303  
         N         N         0.21572   0.69178   0.23010   -0.296786           
         H         H         0.29998   0.93501   0.23518   0.128738  
         H         H         0.13061   0.92958   0.20914   0.126030  
         H         H         0.06851   0.69873   0.22256   0.126020  
         H         H         0.06643   0.86859   0.23647   0.126638  
         H         H         0.13355   0.69990   0.22419   0.125924  
         H         H         0.30105   0.86919   0.22311   0.129466  
         C         C         0.88129   0.73982   0.23880   -0.005277           
         C         C         0.83355   0.69136   0.23970   0.005051  
         C         C         0.83373   0.64197   0.23805   0.004370  
         C         C         0.88188   0.64125   0.23546   -0.009033           
         C         C         0.78579   0.59348   0.23871   -0.006992           
         C         C         0.78557   0.69208   0.24145   -0.006699           
         C         C         0.78588   0.74011   0.24273   -0.103478           
         C         C         0.83304   0.78740   0.24202   -0.086624           
         C         C         0.88049   0.78722   0.23958   -0.101586           
         C         C         0.88142   0.59304   0.23356   -0.100511           
         C         C         0.83416   0.54578   0.23411   -0.088079           
         C         C         0.78669   0.54597   0.23688   -0.101032           
         H         H         0.74829   0.73873   0.24234   0.116457  
         H         H         0.83282   0.82391   0.23969   0.109998  
         H         H         0.91780   0.82315   0.23610   0.115245  
         H         H         0.91886   0.59397   0.23301   0.117098  
         H         H         0.83437   0.50919   0.23600   0.109607  
         H         H         0.74939   0.50985   0.23916   0.116965  
         C         C         0.36008   0.74306   0.23575   0.002591  
         C         C         0.35963   0.69428   0.23439   -0.005004           
         C         C         0.31062   0.64524   0.23468   -0.000880           
         C         C         0.26209   0.64477   0.23509   -0.001837           
         C         C         0.31010   0.59675   0.23484   -0.000048           
         C         C         0.40817   0.69470   0.23427   0.000096  
         C         C         0.45541   0.74243   0.23331   -0.091123           
         C         C         0.45525   0.78999   0.23505   -0.088852           
         C         C         0.40806   0.79051   0.23670   -0.096773           
         C         C         0.21484   0.59749   0.23895   -0.089290           
         C         C         0.21497   0.55036   0.24014   -0.088420           
         C         C         0.26216   0.54976   0.23747   -0.092396           
         H         H         0.49169   0.74096   0.23214   0.113285  
         H         H         0.49212   0.82673   0.23371   0.108484  
         H         H         0.40703   0.82664   0.23467   0.112154  
         H         H         0.17858   0.59911   0.24104   0.113540  
         H         H         0.17815   0.51417   0.24522   0.108403  
         H         H         0.26333   0.51406   0.24185   0.111575  
         C         C         0.25859   0.11747   0.21493   0.001861  
         C         C         0.30719   0.16704   0.22607   -0.004449           
         C         C         0.35612   0.16816   0.23550   -0.001663           
         C         C         0.35649   0.11985   0.23376   0.003244  
         C         C         0.40474   0.21750   0.24632   -0.002129           
         C         C         0.30697   0.21555   0.22812   0.001285  
         C         C         0.25920   0.21369   0.21718   -0.094608           
         C         C         0.21203   0.16425   0.20197   -0.087837           
         C         C         0.21159   0.11650   0.20106   -0.094187           
         C         C         0.40422   0.12148   0.24381   -0.099529           
         C         C         0.45146   0.17050   0.25678   -0.086758           
         C         C         0.45179   0.21827   0.25833   -0.090506           
         H         H         0.26045   0.25110   0.21611   0.111404  
         H         H         0.17543   0.16265   0.18812   0.107605  
         H         H         0.17523   0.07750   0.18948   0.115277  
         H         H         0.40271   0.08403   0.24553   0.115425  
         H         H         0.48813   0.17179   0.26800   0.109057  
         H         H         0.48811   0.25727   0.26970   0.113180 

