
##########################################################################
#               Crystallographic Information Format file
#               Produced by PyCifRW module
#
#  This is a CIF file.  CIF has been adopted by the International
#  Union of Crystallography as the standard for data archiving and
#  transmission.
#
#  For information on this file format, follow the CIF links at
#  http://www.iucr.org
##########################################################################

data_image0

_cell_length_a                          33.2953
_cell_length_b                          33.1625
_cell_length_c                          8.05577
_cell_angle_alpha                       123.274
_cell_angle_beta                        73.6903
_cell_angle_gamma                       120.346
_symmetry_space_group_name_H-M          'P 1'
_space_group_name_Hall                  'P 1'
loop_
  _atom_site_type_symbol
  _atom_site_label
  _atom_site_fract_x
  _atom_site_fract_y
  _atom_site_fract_z
  _atom_site_charge
         O         O         0.38457   0.54575   0.25422   -0.336765           
         C         C         0.33288   0.57892   0.24867   -0.226140           
         C         C         0.33204   0.62157   0.25052   0.029692  
         C         C         0.37516   0.58188   0.25382   0.177515  
         B         B         0.43333   0.56967   0.26799   0.585187  
         C         C         0.46011   0.54398   0.27006   -0.299941           
         O         O         0.54438   0.38318   0.23189   -0.346457           
         C         C         0.57901   0.33277   0.23794   -0.227438           
         C         C         0.62151   0.33328   0.24373   0.029136  
         C         C         0.58072   0.37527   0.23954   0.174586  
         S         S         0.52091   0.57520   0.27432   0.183674  
         C         C         0.52261   0.52181   0.25654   -0.033848           
         C         C         0.44178   0.49441   0.25877   -0.122095           
         H         H         0.30122   0.54480   0.24644   0.136058  
         H         H         0.54556   0.29979   0.23066   0.136630  
         H         H         0.40462   0.46925   0.25578   0.143121  
         O         O         0.45067   0.83880   0.25090   -0.337044           
         C         C         0.41659   0.75321   0.25547   -0.233331           
         C         C         0.37418   0.70935   0.25334   0.030200  
         C         C         0.41449   0.79325   0.25346   0.177031  
         B         B         0.42869   0.86557   0.25048   0.573685  
         C         C         0.45475   0.91846   0.24875   -0.303649           
         O         O         0.61271   0.16042   0.24939   -0.347382           
         C         C         0.66375   0.24700   0.25082   -0.218679           
         C         C         0.66403   0.28974   0.24913   0.029968  
         C         C         0.62167   0.20584   0.24841   0.179837  
         S         S         0.42501   0.95069   0.25878   0.164954  
         C         C         0.47662   0.00295   0.25317   -0.025139           
         C         C         0.50271   0.94725   0.24292   -0.107113           
         H         H         0.45020   0.75570   0.25738   0.136728  
         H         H         0.69554   0.24644   0.25711   0.136076  
         H         H         0.52685   0.93363   0.23770   0.142048  
         O         O         0.15805   0.61003   0.24784   -0.333408           
         C         C         0.24402   0.66189   0.24619   -0.232959           
         C         C         0.28721   0.66294   0.24691   0.028042  
         C         C         0.20365   0.61949   0.24750   0.174817  
         B         B         0.13081   0.56090   0.24738   0.595411  
         C         C         0.07789   0.53415   0.24496   -0.320496           
         O         O         0.83778   0.45362   0.23776   -0.336458           
         C         C         0.75168   0.41959   0.24533   -0.230856           
         C         C         0.70848   0.37712   0.24840   0.028178  
         C         C         0.79209   0.41763   0.24291   0.173558  
         S         S         0.04557   0.47242   0.23958   0.181469  
         C         C         0.99366   0.47242   0.23910   -0.028413           
         C         C         0.04958   0.55379   0.24455   -0.114626           
         H         H         0.24219   0.69301   0.24174   0.135094  
         H         H         0.75351   0.45251   0.24051   0.135366  
         H         H         0.06331   0.59130   0.24483   0.140064  
         O         O         0.61452   0.45592   0.25072   -0.336907           
         C         C         0.66486   0.42064   0.25244   -0.224430           
         C         C         0.66471   0.37716   0.24819   0.029875  
         C         C         0.62303   0.41887   0.24897   0.178751  
         B         B         0.56584   0.43316   0.23893   0.587213  
         C         C         0.53959   0.45963   0.23835   -0.300961           
         O         O         0.45396   0.61950   0.27461   -0.345962           
         C         C         0.41778   0.66772   0.26315   -0.225351           
         C         C         0.37479   0.66597   0.25558   0.029516  
         C         C         0.41700   0.62595   0.26348   0.173158  
         S         S         0.47874   0.42854   0.23499   0.184379  
         C         C         0.47707   0.48187   0.25227   -0.034723           
         C         C         0.55790   0.50924   0.24981   -0.122599           
         H         H         0.69698   0.45451   0.25590   0.135675  
         H         H         0.45089   0.70107   0.27057   0.136417  
         H         H         0.59504   0.53445   0.25225   0.142775  
         O         O         0.54279   0.16043   0.25098   -0.338265           
         C         C         0.57835   0.24598   0.24426   -0.225852           
         C         C         0.62116   0.28921   0.24491   0.030593  
         C         C         0.57956   0.20555   0.24721   0.172236  
         B         B         0.56394   0.13275   0.25020   0.581556  
         C         C         0.53728   0.07959   0.24992   -0.301885           
         O         O         0.38000   0.83712   0.25090   -0.344518           
         C         C         0.33026   0.75011   0.24728   -0.223446           
         C         C         0.33082   0.70766   0.24798   0.027691  
         C         C         0.37192   0.79196   0.25165   0.182312  
         S         S         0.56687   0.04744   0.24165   0.167833  
         C         C         0.51523   0.99520   0.24630   -0.020481           
         C         C         0.48930   0.05083   0.25522   -0.111597           
         H         H         0.54504   0.24417   0.24256   0.136220  
         H         H         0.29819   0.74997   0.23997   0.136816  
         H         H         0.46527   0.06432   0.25831   0.145032  
         O         O         0.83682   0.38356   0.24175   -0.335036           
         C         C         0.75073   0.33359   0.24690   -0.235634           
         C         C         0.70805   0.33379   0.24837   0.030266  
         C         C         0.79156   0.37534   0.24395   0.171352  
         B         B         0.86487   0.43213   0.23859   0.594008  
         C         C         0.91773   0.45772   0.23743   -0.321079           
         O         O         0.15872   0.54029   0.24800   -0.340465           
         C         C         0.24501   0.57682   0.24742   -0.235917           
         C         C         0.28775   0.62018   0.24741   0.030250  
         C         C         0.20413   0.57752   0.24725   0.173194  
         S         S         0.95015   0.51929   0.24201   0.183669  
         C         C         0.00187   0.51905   0.24228   -0.029771           
         C         C         0.94588   0.43770   0.23638   -0.117193           
         H         H         0.75190   0.30188   0.24964   0.136022  
         H         H         0.24391   0.54419   0.25189   0.136622  
         H         H         0.93187   0.40024   0.23683   0.141488  
         O         O         0.38517   0.54431   0.75136   -0.337108           
         C         C         0.33494   0.57940   0.74693   -0.224017           
         C         C         0.33520   0.62283   0.75037   0.029393  
         C         C         0.37673   0.58127   0.75201   0.180044  
         B         B         0.43382   0.56743   0.76607   0.586436  
         C         C         0.46003   0.54124   0.76895   -0.296894           
         O         O         0.54542   0.38073   0.73082   -0.346103           
         C         C         0.58197   0.33242   0.73920   -0.229528           
         C         C         0.62509   0.33408   0.74455   0.031412  
         C         C         0.58253   0.37417   0.73966   0.175531  
         S         S         0.52089   0.57216   0.77235   0.182261  
         C         C         0.52237   0.51883   0.75582   -0.033652           
         C         C         0.44155   0.49174   0.75852   -0.126040           
         H         H         0.30280   0.54548   0.74292   0.135406  
         H         H         0.54892   0.29917   0.73331   0.137840  
         H         H         0.40437   0.46674   0.75686   0.143681  
         O         O         0.45769   0.83975   0.74909   -0.338011           
         C         C         0.42189   0.75425   0.75682   -0.227590           
         C         C         0.37897   0.71092   0.75460   0.029989  
         C         C         0.42084   0.79453   0.75201   0.172661  
         B         B         0.43665   0.86704   0.74614   0.580634  
         C         C         0.46333   0.92019   0.74622   -0.301091           
         O         O         0.62041   0.16289   0.74688   -0.345318           
         C         C         0.67003   0.24981   0.74938   -0.223595           
         C         C         0.66935   0.29218   0.74844   0.027433  
         C         C         0.62843   0.20798   0.74568   0.183838  
         S         S         0.43361   0.95192   0.75209   0.168389  
         C         C         0.48521   0.00441   0.74900   -0.023227           
         C         C         0.51129   0.94931   0.74310   -0.105872           
         H         H         0.45518   0.75647   0.76193   0.137087  
         H         H         0.70215   0.24997   0.75617   0.136244  
         H         H         0.53531   0.93617   0.74274   0.139200  
         O         O         0.16337   0.61515   0.74316   -0.334981           
         C         C         0.24945   0.66585   0.74513   -0.233497           
         C         C         0.29207   0.66596   0.74670   0.030429  
         C         C         0.20855   0.62374   0.74495   0.173462  
         B         B         0.13520   0.56650   0.74556   0.596427  
         C         C         0.08233   0.54079   0.74544   -0.319845           
         O         O         0.84129   0.45845   0.73795   -0.339121           
         C         C         0.75489   0.42261   0.74479   -0.231233           
         C         C         0.71217   0.37963   0.74840   0.028692  
         C         C         0.79586   0.42170   0.74233   0.173783  
         S         S         0.04997   0.47832   0.73358   0.182129  
         C         C         0.99822   0.47897   0.73686   -0.028439           
         C         C         0.05410   0.56141   0.75186   -0.117599           
         H         H         0.24837   0.69746   0.74139   0.134913  
         H         H         0.75593   0.45510   0.73946   0.133843  
         H         H         0.06808   0.59955   0.75685   0.142303  
         O         O         0.61463   0.45441   0.74957   -0.337848           
         C         C         0.66664   0.42143   0.75388   -0.226573           
         C         C         0.66774   0.37854   0.74921   0.028675  
         C         C         0.62425   0.41828   0.74886   0.177701  
         B         B         0.56586   0.43050   0.73716   0.586845  
         C         C         0.53907   0.45635   0.73645   -0.298862           
         O         O         0.45528   0.61744   0.77355   -0.347046           
         C         C         0.42086   0.66750   0.76399   -0.229272           
         C         C         0.37844   0.66685   0.75639   0.029719  
         C         C         0.41904   0.62500   0.76284   0.174639  
         S         S         0.47827   0.42551   0.73352   0.182811  
         C         C         0.47676   0.47905   0.75181   -0.031939           
         C         C         0.55753   0.50603   0.74845   -0.123115           
         H         H         0.69813   0.45608   0.75953   0.137089  
         H         H         0.45439   0.70053   0.77251   0.137358  
         H         H         0.59469   0.53112   0.75108   0.142722  
         O         O         0.54967   0.16070   0.74429   -0.338832           
         C         C         0.58359   0.24646   0.74138   -0.233466           
         C         C         0.62589   0.29052   0.74454   0.031401  
         C         C         0.58581   0.20642   0.74282   0.177351  
         B         B         0.57173   0.13423   0.74629   0.575627  
         C         C         0.54572   0.08142   0.74840   -0.304354           
         O         O         0.38787   0.83900   0.74363   -0.346885           
         C         C         0.33669   0.75263   0.74335   -0.223286           
         C         C         0.33619   0.71013   0.74734   0.030427  
         C         C         0.37882   0.79388   0.74702   0.183256  
         S         S         0.57551   0.04955   0.74060   0.166929  
         C         C         0.52390   0.99708   0.74459   -0.025350           
         C         C         0.49772   0.05225   0.75151   -0.107498           
         H         H         0.54987   0.24357   0.73843   0.136167  
         H         H         0.30496   0.75278   0.73376   0.137352  
         H         H         0.47369   0.06553   0.75327   0.142412  
         O         O         0.84200   0.38908   0.74059   -0.335885           
         C         C         0.75612   0.33758   0.74565   -0.232957           
         C         C         0.71287   0.33681   0.74801   0.028656  
         C         C         0.79640   0.37981   0.74251   0.172206  
         B         B         0.86923   0.43778   0.73800   0.597141  
         C         C         0.92218   0.46414   0.73727   -0.322206           
         O         O         0.16214   0.54504   0.74777   -0.339464           
         C         C         0.24825   0.57989   0.74761   -0.231553           
         C         C         0.29152   0.62271   0.74765   0.028171  
         C         C         0.20790   0.58140   0.74608   0.172558  
         S         S         0.95439   0.52684   0.75044   0.182549  
         C         C         0.00634   0.52652   0.74766   -0.029535           
         C         C         0.95055   0.44383   0.73185   -0.116693           
         H         H         0.75807   0.30633   0.74874   0.135227  
         H         H         0.24627   0.54677   0.75152   0.135745  
         H         H         0.93685   0.40568   0.72654   0.142458 

