
##########################################################################
#               Crystallographic Information Format file
#               Produced by PyCifRW module
#
#  This is a CIF file.  CIF has been adopted by the International
#  Union of Crystallography as the standard for data archiving and
#  transmission.
#
#  For information on this file format, follow the CIF links at
#  http://www.iucr.org
##########################################################################

data_image0

_cell_length_a                          34.5425
_cell_length_b                          33.9849
_cell_length_c                          8.95192
_cell_angle_alpha                       89.061
_cell_angle_beta                        89.8422
_cell_angle_gamma                       89.9582
_symmetry_space_group_name_H-M          'P 1'
_space_group_name_Hall                  'P 1'
loop_
  _atom_site_type_symbol
  _atom_site_label
  _atom_site_fract_x
  _atom_site_fract_y
  _atom_site_fract_z
  _atom_site_charge
         C         C         0.46671   0.95854   0.50690   0.034780  
         C         C         0.43050   0.02004   0.48901   -0.135366           
         C         C         0.46436   0.08446   0.51274   0.023936  
         C         C         0.42801   0.10708   0.52637   0.067062  
         C         C         0.39862   0.09580   0.62742   -0.136917           
         C         C         0.36486   0.11794   0.63903   -0.128469           
         C         C         0.35869   0.15129   0.54676   0.054568  
         C         C         0.38860   0.16339   0.44904   -0.108968           
         C         C         0.42281   0.14201   0.44083   -0.137154           
         C         C         0.32188   0.17233   0.55422   0.066652  
         C         C         0.78267   0.27501   0.44072   0.179278  
         C         C         0.77904   0.24557   0.33255   -0.142555           
         C         C         0.71953   0.25567   0.53928   -0.169316           
         H         H         0.40316   0.03547   0.47570   0.108456  
         H         H         0.40291   0.07018   0.70032   0.109055  
         H         H         0.34305   0.10993   0.72187   0.107041  
         H         H         0.38431   0.18965   0.37935   0.114429  
         H         H         0.44559   0.15144   0.36366   0.109791  
         H         H         0.30426   0.16688   0.65370   0.069436  
         H         H         0.80239   0.24237   0.25187   0.117775  
         H         H         0.69618   0.25910   0.62007   0.118279  
         N         N         0.31183   0.19638   0.44786   -0.306748           
         C         C         0.96527   0.45958   0.49903   0.031441  
         C         C         0.93116   0.52266   0.48593   -0.132686           
         C         C         0.96729   0.58603   0.51069   0.024237  
         C         C         0.93177   0.61031   0.51163   0.072546  
         C         C         0.90109   0.60165   0.61032   -0.136129           
         C         C         0.86826   0.62527   0.61241   -0.121534           
         C         C         0.86441   0.65749   0.51314   0.047624  
         C         C         0.89540   0.66689   0.41672   -0.105714           
         C         C         0.92872   0.64386   0.41740   -0.136351           
         C         C         0.82816   0.67963   0.51805   0.076499  
         C         C         0.28984   0.76994   0.43816   0.184247  
         C         C         0.29078   0.73398   0.36155   -0.142245           
         C         C         0.22135   0.75851   0.49197   -0.172139           
         H         H         0.90431   0.53896   0.47250   0.106282  
         H         H         0.90396   0.57716   0.68916   0.112371  
         H         H         0.84518   0.61918   0.69237   0.111466  
         H         H         0.89291   0.69216   0.34094   0.112809  
         H         H         0.95243   0.65104   0.34115   0.110281  
         H         H         0.81210   0.67799   0.62312   0.072516  
         H         H         0.31814   0.72529   0.31037   0.121761  
         H         H         0.19406   0.76744   0.54368   0.119162  
         N         N         0.81491   0.69945   0.40410   -0.286550           
         C         C         0.53691   0.04435   0.50091   0.030598  
         C         C         0.57333   0.98278   0.49130   -0.132041           
         C         C         0.53899   0.91795   0.51822   0.022601  
         C         C         0.57443   0.89345   0.52410   0.067703  
         C         C         0.60580   0.90168   0.61928   -0.136997           
         C         C         0.63778   0.87684   0.62489   -0.126816           
         C         C         0.64010   0.84362   0.53415   0.053528  
         C         C         0.60851   0.83469   0.44113   -0.108938           
         C         C         0.57623   0.85892   0.43794   -0.133558           
         C         C         0.67454   0.81887   0.53831   0.071073  
         C         C         0.22270   0.72262   0.41596   0.195393  
         C         C         0.25781   0.71089   0.34894   -0.169821           
         C         C         0.25422   0.78217   0.50132   -0.159437           
         H         H         0.60106   0.96791   0.48259   0.107157  
         H         H         0.60382   0.92639   0.69506   0.109851  
         H         H         0.66119   0.88251   0.70296   0.108434  
         H         H         0.61018   0.80865   0.37214   0.114774  
         H         H         0.55210   0.85188   0.36446   0.109607  
         H         H         0.69173   0.81967   0.64064   0.068166  
         H         H         0.25880   0.68360   0.28707   0.119066  
         H         H         0.25196   0.81012   0.55889   0.113481  
         N         N         0.68328   0.79659   0.42821   -0.304498           
         C         C         0.03820   0.54337   0.50795   0.031217  
         C         C         0.07261   0.48102   0.49160   -0.134735           
         C         C         0.03671   0.41728   0.51107   0.018805  
         C         C         0.07206   0.39279   0.51963   0.070618  
         C         C         0.10396   0.40207   0.61100   -0.135056           
         C         C         0.13662   0.37814   0.61450   -0.121141           
         C         C         0.13921   0.34473   0.52479   0.047057  
         C         C         0.10714   0.33478   0.43617   -0.110085           
         C         C         0.07417   0.35811   0.43546   -0.133852           
         C         C         0.17448   0.32097   0.52733   0.072827  
         C         C         0.71661   0.22590   0.43185   0.204892  
         C         C         0.74657   0.22152   0.32711   -0.178573           
         C         C         0.75187   0.28012   0.54252   -0.158438           
         H         H         0.09958   0.46507   0.47823   0.106585  
         H         H         0.10228   0.42740   0.68348   0.110334  
         H         H         0.16064   0.38489   0.68881   0.111286  
         H         H         0.10894   0.30901   0.36601   0.114530  
         H         H         0.04980   0.35056   0.36402   0.110845  
         H         H         0.19197   0.32248   0.62908   0.073372  
         H         H         0.74437   0.19906   0.24274   0.113054  
         H         H         0.75310   0.30254   0.62761   0.113778  
         N         N         0.18438   0.29937   0.41626   -0.287700           
         C         C         0.46505   0.04269   0.50442   0.033608  
         C         C         0.43137   0.97989   0.48922   -0.134628           
         C         C         0.46756   0.91674   0.51766   0.022539  
         C         C         0.43221   0.89198   0.52365   0.070170  
         C         C         0.40099   0.89970   0.62004   -0.133805           
         C         C         0.36875   0.87507   0.62354   -0.128146           
         C         C         0.36616   0.84232   0.53024   0.051147  
         C         C         0.39750   0.83438   0.43445   -0.104815           
         C         C         0.42993   0.85848   0.43286   -0.135419           
         C         C         0.33100   0.81849   0.53502   0.067627  
         C         C         0.78146   0.72250   0.42096   0.192679  
         C         C         0.74857   0.71520   0.33306   -0.178601           
         C         C         0.74971   0.78042   0.51998   -0.161119           
         H         H         0.40467   0.96355   0.47559   0.107408  
         H         H         0.40275   0.92406   0.69658   0.109871  
         H         H         0.34553   0.88042   0.70246   0.108695  
         H         H         0.39527   0.80966   0.35946   0.114164  
         H         H         0.45343   0.85287   0.35496   0.110316  
         H         H         0.31064   0.82467   0.62567   0.068785  
         H         H         0.74859   0.69036   0.25826   0.118110  
         H         H         0.75053   0.80596   0.59121   0.114006  
         N         N         0.32451   0.79154   0.43776   -0.305733           
         C         C         0.96633   0.54422   0.50399   0.028309  
         C         C         0.93070   0.48246   0.48263   -0.132079           
         C         C         0.96521   0.41749   0.50328   0.024734  
         C         C         0.92952   0.39309   0.50946   0.066810  
         C         C         0.89771   0.40364   0.59950   -0.140674           
         C         C         0.86497   0.37991   0.60972   -0.127473           
         C         C         0.86193   0.34504   0.52808   0.057115  
         C         C         0.89400   0.33370   0.44051   -0.109754           
         C         C         0.92712   0.35696   0.43305   -0.134410           
         C         C         0.82604   0.32227   0.53525   0.062459  
         C         C         0.27824   0.21953   0.45097   0.184959  
         C         C         0.27528   0.24676   0.33127   -0.145217           
         C         C         0.21810   0.24589   0.54965   -0.169825           
         H         H         0.90344   0.46738   0.46424   0.107965  
         H         H         0.89942   0.43004   0.66644   0.109586  
         H         H         0.84136   0.38837   0.68338   0.107690  
         H         H         0.89206   0.30660   0.37723   0.115831  
         H         H         0.95104   0.34733   0.36270   0.109916  
         H         H         0.80699   0.32869   0.62952   0.067106  
         H         H         0.29794   0.24622   0.24703   0.111125  
         H         H         0.19513   0.24582   0.63324   0.113079  
         N         N         0.81738   0.29666   0.43552   -0.303710           
         C         C         0.53878   0.95989   0.50784   0.030706  
         C         C         0.57238   0.02304   0.48640   -0.138316           
         C         C         0.53539   0.08620   0.50690   0.017792  
         C         C         0.57071   0.11048   0.51519   0.074244  
         C         C         0.60108   0.09996   0.61272   -0.137464           
         C         C         0.63429   0.12291   0.62142   -0.122695           
         C         C         0.63816   0.15706   0.53176   0.046005  
         C         C         0.60740   0.16849   0.43785   -0.108310           
         C         C         0.57412   0.14576   0.43037   -0.135000           
         C         C         0.67411   0.17960   0.53378   0.077506  
         C         C         0.21591   0.27357   0.43074   0.201946  
         C         C         0.24487   0.27326   0.32008   -0.172457           
         C         C         0.24849   0.21908   0.55949   -0.154090           
         H         H         0.59906   0.03956   0.47169   0.107372  
         H         H         0.59763   0.07422   0.68558   0.111047  
         H         H         0.65717   0.11478   0.69968   0.112118  
         H         H         0.61085   0.19501   0.36909   0.112849  
         H         H         0.55109   0.15427   0.35332   0.112434  
         H         H         0.69287   0.17595   0.63153   0.073246  
         H         H         0.24390   0.29429   0.22749   0.111409  
         H         H         0.24905   0.19835   0.65326   0.110616  
         N         N         0.68346   0.20243   0.42211   -0.289546           
         C         C         0.03742   0.45913   0.50540   0.032633  
         C         C         0.07307   0.52121   0.49228   -0.134314           
         C         C         0.03847   0.58515   0.51536   0.021890  
         C         C         0.07418   0.60927   0.51624   0.071297  
         C         C         0.10539   0.60216   0.61414   -0.135040           
         C         C         0.13680   0.62778   0.61655   -0.124011           
         C         C         0.13890   0.66023   0.51739   0.049957  
         C         C         0.10825   0.66701   0.41729   -0.113311           
         C         C         0.07626   0.64226   0.41886   -0.135910           
         C         C         0.17344   0.68513   0.52058   0.084502  
         C         C         0.71666   0.77298   0.43285   0.182566  
         C         C         0.71669   0.74009   0.33939   -0.146644           
         C         C         0.78149   0.75518   0.51583   -0.168350           
         H         H         0.10018   0.53702   0.47827   0.107227  
         H         H         0.10400   0.57747   0.69301   0.111752  
         H         H         0.16001   0.62294   0.69704   0.113597  
         H         H         0.10987   0.69147   0.33759   0.112888  
         H         H         0.05280   0.64706   0.33946   0.109544  
         H         H         0.18547   0.69049   0.63104   0.072218  
         H         H         0.69131   0.73533   0.26988   0.122961  
         H         H         0.80684   0.76065   0.58435   0.119281  
         N         N         0.18966   0.69878   0.40123   -0.285747           
         C         C         0.49941   0.10509   0.51153   -0.188087           
         C         C         0.50234   0.98026   0.50638   0.002419  
         H         H         0.49874   0.13702   0.52237   0.109679  
         C         C         0.00303   0.60521   0.51730   -0.188830           
         C         C         0.00149   0.48039   0.50444   0.004478  
         H         H         0.00318   0.63710   0.52806   0.109639  
         C         C         0.50352   0.89790   0.52340   -0.188512           
         C         C         0.50147   0.02247   0.50423   0.006208  
         H         H         0.50390   0.86602   0.53724   0.109811  
         C         C         0.00091   0.39799   0.50861   -0.184728           
         C         C         0.00198   0.52264   0.50679   0.006082  
         H         H         0.00101   0.36607   0.51846   0.107167  
         C         C         0.46280   0.95825   0.00959   0.030876  
         C         C         0.42693   0.02030   -0.00295  -0.137219           
         C         C         0.46179   0.08445   0.01686   0.022761  
         C         C         0.42629   0.10873   0.01869   0.070420  
         C         C         0.39472   0.10090   0.11416   -0.136800           
         C         C         0.36294   0.12609   0.11731   -0.124842           
         C         C         0.36106   0.15937   0.02230   0.047616  
         C         C         0.39275   0.16750   0.92723   -0.105801           
         C         C         0.42461   0.14273   0.92621   -0.132789           
         C         C         0.32720   0.18515   0.02318   0.069217  
         C         C         0.78371   0.27079   0.93209   0.183430  
         C         C         0.78498   0.23469   0.85654   -0.141807           
         C         C         0.71548   0.25895   0.98588   -0.174291           
         H         H         0.39961   0.03584   0.98504   0.108289  
         H         H         0.39627   0.07585   0.19118   0.109616  
         H         H         0.33955   0.12052   0.19641   0.111612  
         H         H         0.39132   0.19323   0.85365   0.112825  
         H         H         0.44822   0.14855   0.84865   0.108552  
         H         H         0.30917   0.18431   0.12395   0.071331  
         H         H         0.81201   0.22649   0.80259   0.122244  
         H         H         0.68813   0.26789   0.03593   0.123400  
         N         N         0.31988   0.20858   0.91259   -0.292266           
         C         C         0.96216   0.45787   0.00923   0.032129  
         C         C         0.92752   0.52064   0.00282   -0.135694           
         C         C         0.96324   0.58421   0.02364   0.020983  
         C         C         0.92779   0.60873   0.02516   0.070801  
         C         C         0.89571   0.59968   0.11774   -0.134722           
         C         C         0.86324   0.62388   0.11882   -0.123610           
         C         C         0.86128   0.65737   0.02482   0.051449  
         C         C         0.89324   0.66697   0.93353   -0.113319           
         C         C         0.92610   0.64327   0.93542   -0.137351           
         C         C         0.82617   0.68142   0.02444   0.080348  
         C         C         0.28209   0.77394   0.94664   0.182773  
         C         C         0.28012   0.74344   0.84148   -0.141555           
         C         C         0.21786   0.75494   0.03553   -0.175632           
         H         H         0.90043   0.53662   0.99184   0.106924  
         H         H         0.89729   0.57441   0.19391   0.109696  
         H         H         0.83920   0.61731   0.19440   0.113869  
         H         H         0.89165   0.69302   0.86116   0.114633  
         H         H         0.95044   0.65065   0.86227   0.113980  
         H         H         0.81089   0.68411   0.13086   0.070635  
         H         H         0.30457   0.73962   0.76606   0.118506  
         H         H         0.19380   0.75845   0.11294   0.120069  
         N         N         0.81338   0.69848   0.90486   -0.290311           
         C         C         0.53376   0.04329   0.01004   0.033093  
         C         C         0.56960   0.98145   0.99500   -0.130093           
         C         C         0.53506   0.91695   0.01507   0.025551  
         C         C         0.57101   0.89300   0.01879   0.066707  
         C         C         0.60196   0.90080   0.11663   -0.133956           
         C         C         0.63471   0.87684   0.11964   -0.126776           
         C         C         0.63825   0.84465   0.02367   0.050237  
         C         C         0.60721   0.83643   0.92735   -0.103961           
         C         C         0.57420   0.85977   0.92670   -0.135314           
         C         C         0.67354   0.82090   0.02765   0.066883  
         C         C         0.21600   0.72491   0.92850   0.198704  
         C         C         0.24763   0.71953   0.83133   -0.176611           
         C         C         0.25018   0.77921   0.04353   -0.154734           
         H         H         0.59695   0.96610   0.98101   0.106722  
         H         H         0.59943   0.92471   0.19541   0.108408  
         H         H         0.65756   0.88224   0.20021   0.109584  
         H         H         0.60978   0.81151   0.85287   0.112741  
         H         H         0.55066   0.85318   0.85008   0.110105  
         H         H         0.69236   0.82528   0.12430   0.068660  
         H         H         0.24665   0.69636   0.74857   0.114851  
         H         H         0.25043   0.80204   0.12752   0.110170  
         N         N         0.68145   0.79576   0.92459   -0.306589           
         C         C         0.03466   0.54161   0.01267   0.033379  
         C         C         0.06935   0.47912   0.99564   -0.131442           
         C         C         0.03349   0.41535   0.01191   0.022358  
         C         C         0.06897   0.39077   0.01740   0.070143  
         C         C         0.09839   0.39698   0.12343   -0.133569           
         C         C         0.13111   0.37310   0.12757   -0.121819           
         C         C         0.13644   0.34332   0.02214   0.046803  
         C         C         0.10669   0.33629   0.91881   -0.110373           
         C         C         0.07326   0.35911   0.91862   -0.132782           
         C         C         0.17251   0.32049   0.02404   0.088868  
         C         C         0.71727   0.22255   0.91303   0.197592  
         C         C         0.75242   0.21069   0.84718   -0.179144           
         C         C         0.74818   0.28281   0.99545   -0.158026           
         H         H         0.09625   0.46301   0.98085   0.109168  
         H         H         0.09432   0.41962   0.20692   0.109559  
         H         H         0.15265   0.37703   0.21454   0.112639  
         H         H         0.11044   0.31302   0.83754   0.111935  
         H         H         0.05060   0.35372   0.83684   0.110533  
         H         H         0.18615   0.31604   0.13315   0.073449  
         H         H         0.75386   0.18324   0.78668   0.118215  
         H         H         0.74587   0.31057   0.05409   0.114166  
         N         N         0.18778   0.30664   0.90449   -0.288503           
         C         C         0.46172   0.04267   0.01119   0.031565  
         C         C         0.42754   0.98011   -0.00378  -0.132404           
         C         C         0.46359   0.91636   0.01462   0.024579  
         C         C         0.42793   0.89222   0.02160   0.067410  
         C         C         0.39757   0.90078   0.12141   -0.135194           
         C         C         0.36478   0.87715   0.12911   -0.128476           
         C         C         0.36067   0.84444   0.03589   0.048878  
         C         C         0.39109   0.83554   0.93641   -0.104745           
         C         C         0.42416   0.85880   0.93069   -0.133841           
         C         C         0.32538   0.82082   0.04473   0.071203  
         C         C         0.78081   0.72303   0.91596   0.200060  
         C         C         0.74780   0.71513   0.82984   -0.172525           
         C         C         0.74909   0.78135   0.01221   -0.159453           
         H         H         0.40060   0.96416   0.98295   0.107144  
         H         H         0.40059   0.92548   0.19668   0.109181  
         H         H         0.34207   0.88373   0.20984   0.106469  
         H         H         0.38785   0.81045   0.86296   0.112790  
         H         H         0.44704   0.85222   0.85044   0.110048  
         H         H         0.30783   0.82469   0.14548   0.067285  
         H         H         0.74759   0.68975   0.75725   0.117836  
         H         H         0.75029   0.80714   0.08265   0.116205  
         N         N         0.31608   0.79667   0.94099   -0.306018           
         C         C         0.96263   0.54236   0.01721   0.031524  
         C         C         0.92732   0.48049   -0.00134  -0.133108           
         C         C         0.96216   0.41594   0.00791   0.027101  
         C         C         0.92645   0.39191   0.01042   0.066454  
         C         C         0.89559   0.40031   0.10786   -0.137211           
         C         C         0.86320   0.37620   0.11598   -0.126019           
         C         C         0.85997   0.34307   0.02456   0.050857  
         C         C         0.89085   0.33434   0.92651   -0.104835           
         C         C         0.92351   0.35817   0.92052   -0.133804           
         C         C         0.82500   0.31891   0.03148   0.066455  
         C         C         0.28634   0.23206   0.91475   0.185628  
         C         C         0.28921   0.27121   0.86031   -0.148698           
         C         C         0.21789   0.24312   0.96390   -0.168337           
         H         H         0.90015   0.46506   0.98393   0.107576  
         H         H         0.89821   0.42520   0.18208   0.108271  
         H         H         0.84034   0.38254   0.19653   0.108448  
         H         H         0.88822   0.30889   0.85486   0.112341  
         H         H         0.94672   0.35156   0.84217   0.109605  
         H         H         0.80551   0.32440   0.12574   0.069899  
         H         H         0.31734   0.28166   0.81952   0.122750  
         H         H         0.18986   0.23234   0.00307   0.119548  
         N         N         0.81811   0.29280   0.93176   -0.303073           
         C         C         0.53484   0.95889   0.00966   0.031745  
         C         C         0.56904   0.02171   0.99479   -0.137895           
         C         C         0.53300   0.08511   0.01572   0.019501  
         C         C         0.56832   0.10974   0.01742   0.077121  
         C         C         0.59903   0.10227   0.11733   -0.135132           
         C         C         0.63140   0.12655   0.11770   -0.122525           
         C         C         0.63477   0.15822   0.01553   0.043944  
         C         C         0.60394   0.16631   0.91708   -0.106995           
         C         C         0.57119   0.14261   0.91926   -0.133115           
         C         C         0.67051   0.18112   0.01565   0.084200  
         C         C         0.22110   0.28257   0.91355   0.192950  
         C         C         0.25728   0.29627   0.86038   -0.172746           
         C         C         0.24994   0.21818   0.96429   -0.165720           
         H         H         0.59580   0.03814   0.98047   0.106967  
         H         H         0.59652   0.07817   0.19864   0.110744  
         H         H         0.65460   0.12133   0.19812   0.112092  
         H         H         0.60645   0.19080   0.83774   0.114420  
         H         H         0.54787   0.14820   0.83984   0.110905  
         H         H         0.68633   0.18155   0.12126   0.072411  
         H         H         0.26030   0.32679   0.82005   0.117745  
         H         H         0.24680   0.18765   0.00244   0.113234  
         N         N         0.68363   0.19954   0.89867   -0.288141           
         C         C         0.03416   0.45727   0.01033   0.031614  
         C         C         0.06950   0.51936   0.99509   -0.136281           
         C         C         0.03448   0.58343   0.01950   0.020908  
         C         C         0.06999   0.60767   0.02021   0.071790  
         C         C         0.10164   0.59885   0.11396   -0.136037           
         C         C         0.13360   0.62365   0.11731   -0.121271           
         C         C         0.13580   0.65711   0.02310   0.047446  
         C         C         0.10418   0.66626   0.92970   -0.109414           
         C         C         0.07166   0.64224   0.92981   -0.137855           
         C         C         0.17104   0.68081   0.02651   0.077013  
         C         C         0.71553   0.77311   0.92852   0.180685  
         C         C         0.71583   0.73979   0.83703   -0.142276           
         C         C         0.78117   0.75656   0.00632   -0.172673           
         H         H         0.09660   0.53503   0.97816   0.106664  
         H         H         0.10008   0.57344   0.18985   0.110092  
         H         H         0.15704   0.61777   0.19596   0.113537  
         H         H         0.10561   0.69227   0.85684   0.114031  
         H         H         0.04734   0.64919   0.85615   0.111165  
         H         H         0.18754   0.67974   0.13055   0.070697  
         H         H         0.69017   0.73415   0.77017   0.120216  
         H         H         0.80709   0.76321   0.07013   0.120235  
         N         N         0.18277   0.70144   0.91291   -0.288557           
         C         C         0.49724   0.10438   0.01933   -0.187124           
         C         C         0.49855   0.97965   0.01099   0.003561  
         H         H         0.49677   0.13626   0.02925   0.109324  
         C         C         -0.00095  0.60337   0.02559   -0.189165           
         C         C         0.99826   0.47867   0.01279   0.002847  
         H         H         -0.00042  0.63522   0.03697   0.107405  
         C         C         0.49946   0.89711   0.01654   -0.188072           
         C         C         0.49796   0.02189   0.01149   0.005171  
         H         H         0.49990   0.86517   0.02628   0.111054  
         C         C         0.99772   0.39609   0.00844   -0.186032           
         C         C         0.99848   0.52089   0.01573   0.005318  
         H         H         0.99753   0.36409   0.01269   0.110393 

