
##########################################################################
#               Crystallographic Information Format file
#               Produced by PyCifRW module
#
#  This is a CIF file.  CIF has been adopted by the International
#  Union of Crystallography as the standard for data archiving and
#  transmission.
#
#  For information on this file format, follow the CIF links at
#  http://www.iucr.org
##########################################################################

data_image0

_cell_length_a                          23.4832
_cell_length_b                          36.0902
_cell_length_c                          9.80145
_cell_angle_alpha                       77.3927
_cell_angle_beta                        99.168
_cell_angle_gamma                       90.4119
_symmetry_space_group_name_H-M          'P 1'
_space_group_name_Hall                  'P 1'
loop_
  _atom_site_type_symbol
  _atom_site_label
  _atom_site_fract_x
  _atom_site_fract_y
  _atom_site_fract_z
  _atom_site_charge
         N         N         0.22998   0.68803   0.22841   -0.236857           
         N         N         0.73787   0.18171   0.28989   -0.243742           
         N         N         0.76229   0.31270   0.23962   -0.230609           
         N         N         0.26448   0.81362   0.26729   -0.238204           
         N         N         0.76276   0.68589   0.21783   -0.213090           
         N         N         0.26927   0.18696   0.23194   -0.228416           
         N         N         0.23290   0.31277   0.25767   -0.241169           
         N         N         0.74292   0.81059   0.27802   -0.221631           
         C         C         0.24189   0.72467   0.22155   0.034901  
         C         C         0.74787   0.21786   0.29588   0.044822  
         C         C         0.75588   0.27508   0.27481   0.032281  
         C         C         0.25269   0.77962   0.23848   0.026507  
         C         C         0.75571   0.72015   0.24403   0.042969  
         C         C         0.25812   0.22103   0.25597   0.030293  
         C         C         0.24587   0.27604   0.26864   0.032779  
         C         C         0.75186   0.77530   0.26141   0.031319  
         C         C         0.20142   0.75669   0.21163   0.199524  
         C         C         0.70959   0.24866   0.31104   0.201627  
         C         C         0.79488   0.24420   0.26415   0.203320  
         C         C         0.29322   0.74812   0.24665   0.198167  
         C         C         0.79191   0.75302   0.20505   0.197580  
         C         C         0.29723   0.25277   0.26495   0.200488  
         C         C         0.20679   0.24402   0.26201   0.200641  
         C         C         0.71604   0.74223   0.30097   0.198262  
         H         H         0.18742   0.68153   0.22425   0.291685  
         H         H         0.69627   0.17330   0.29061   0.291972  
         H         H         0.79942   0.32055   0.20094   0.284074  
         H         H         0.30690   0.81787   0.30119   0.291426  
         H         H         0.79620   0.68420   0.16430   0.282565  
         H         H         0.30986   0.18271   0.21232   0.288454  
         H         H         0.18990   0.32014   0.23967   0.294271  
         H         H         0.70850   0.81352   0.32720   0.282995  
         C         C         0.95385   0.92242   0.25559   0.186381  
         C         C         0.45113   0.42213   0.23032   0.185613  
         C         C         0.05016   0.08006   0.22098   0.187514  
         C         C         0.54667   0.57800   0.25404   0.186372  
         C         C         0.04773   0.92196   0.25997   0.183362  
         C         C         0.54467   0.42240   0.22454   0.180744  
         C         C         0.95634   0.08039   0.22566   0.182359  
         C         C         0.45302   0.57841   0.26413   0.191514  
         C         C         0.97400   0.88341   0.30406   -0.175429           
         C         C         0.46565   0.38753   0.19049   -0.180473           
         C         C         0.03093   0.11920   0.19263   -0.179405           
         C         C         0.52996   0.61648   0.25176   -0.177747           
         C         C         0.03214   0.88307   0.30479   -0.181859           
         C         C         0.52347   0.38779   0.18646   -0.168249           
         C         C         0.97333   0.11938   0.19854   -0.178318           
         C         C         0.47342   0.61620   0.26749   -0.178367           
         H         H         0.94742   0.85954   0.33616   0.135292  
         H         H         0.43583   0.36597   0.16658   0.136644  
         H         H         0.05747   0.14352   0.16775   0.140852  
         H         H         0.55743   0.64074   0.24135   0.138908  
         H         H         0.06186   0.85883   0.33706   0.141089  
         H         H         0.54913   0.36662   0.15854   0.136747  
         H         H         0.94467   0.14381   0.18160   0.141427  
         H         H         0.44908   0.63989   0.28210   0.141252  
         N         N         0.41400   0.49934   0.26220   -0.383732           
         N         N         0.91476   0.00244   0.22065   -0.381294           
         N         N         0.58538   0.49822   0.26045   -0.379602           
         N         N         0.08845   0.00088   0.23666   -0.382823           
         C         C         0.37928   0.46804   0.26448   0.187632  
         C         C         0.87828   0.97260   0.20820   0.187658  
         C         C         0.62129   0.52763   0.28043   0.183903  
         C         C         0.12527   0.03063   0.24350   0.189878  
         C         C         0.62127   0.46699   0.27181   0.182821  
         C         C         0.12286   0.96999   0.23664   0.185675  
         C         C         0.37791   0.53006   0.25808   0.191226  
         C         C         0.87993   0.03304   0.22253   0.184863  
         C         C         0.32085   0.47909   0.26783   -0.187608           
         C         C         0.81936   0.98544   0.19287   -0.185455           
         C         C         0.68051   0.51415   0.31628   -0.182845           
         C         C         0.18398   0.01765   0.25269   -0.185658           
         C         C         0.68049   0.47659   0.31071   -0.191651           
         C         C         0.18228   0.98064   0.24133   -0.183002           
         C         C         0.31940   0.51744   0.25535   -0.183358           
         C         C         0.82044   0.02211   0.20860   -0.180850           
         H         H         0.28499   0.46027   0.27427   0.122881  
         H         H         0.78236   0.96815   0.17481   0.124228  
         H         H         0.71664   0.53118   0.34582   0.128281  
         H         H         0.22172   0.03449   0.26646   0.124095  
         H         H         0.71703   0.45694   0.33184   0.124962  
         H         H         0.21795   0.96214   0.23867   0.126403  
         H         H         0.28148   0.53533   0.24275   0.124560  
         H         H         0.78389   0.03973   0.21101   0.124458  
         C         C         0.89567   0.93437   0.22891   -0.070304           
         C         C         0.39564   0.43172   0.25077   -0.078473           
         C         C         0.10811   0.06830   0.23513   -0.072338           
         C         C         0.60400   0.56563   0.26492   -0.062257           
         C         C         0.10415   0.93282   0.24602   -0.070038           
         C         C         0.60308   0.43163   0.24567   -0.069920           
         C         C         0.89903   0.06956   0.23210   -0.067791           
         C         C         0.39480   0.56773   0.25936   -0.072940           
         C         C         0.85279   0.90413   0.23182   0.058471  
         C         C         0.35252   0.40127   0.25479   0.067648  
         C         C         0.15205   0.09764   0.23899   0.065300  
         C         C         0.64913   0.59460   0.26220   0.074709  
         C         C         0.14607   0.90204   0.25059   0.068512  
         C         C         0.64625   0.40155   0.24605   0.065803  
         C         C         0.85730   0.09886   0.24628   0.075472  
         C         C         0.35043   0.59798   0.25108   0.074666  
         C         C         0.36656   0.36491   0.34227   -0.102296           
         C         C         0.80796   0.90205   0.31191   -0.117601           
         C         C         0.65346   0.61986   0.35341   -0.114414           
         C         C         0.14958   0.12439   0.32299   -0.106730           
         C         C         0.68669   0.40690   0.15258   -0.124801           
         C         C         0.13631   0.87860   0.15253   -0.108805           
         C         C         0.35492   0.63501   0.16973   -0.109289           
         C         C         0.80539   0.10794   0.15049   -0.122533           
         C         C         0.68736   0.59894   0.16425   -0.116700           
         C         C         0.19580   0.10111   0.15529   -0.117304           
         C         C         0.29768   0.40717   0.16946   -0.118906           
         C         C         0.85783   0.87479   0.15988   -0.102407           
         C         C         0.30241   0.59235   0.32267   -0.118957           
         C         C         0.87014   0.11903   0.35528   -0.114187           
         C         C         0.64628   0.36596   0.33958   -0.108199           
         C         C         0.19492   0.89482   0.35561   -0.120475           
         H         H         0.80495   0.92299   0.37502   0.117670  
         H         H         0.40825   0.35997   0.41175   0.121859  
         H         H         0.11800   0.12138   0.39384   0.116762  
         H         H         0.62618   0.61588   0.43394   0.101406  
         H         H         0.09875   0.88420   0.06982   0.117143  
         H         H         0.68654   0.43355   0.07525   0.116463  
         H         H         0.79717   0.09454   0.06041   0.107048  
         H         H         0.38926   0.64071   0.10744   0.108070  
         H         H         0.19723   0.08212   0.08432   0.111251  
         H         H         0.68515   0.57999   0.09205   0.104544  
         H         H         0.89067   0.87626   0.09279   0.117092  
         H         H         0.28719   0.43415   0.09442   0.112146  
         H         H         0.91011   0.11259   0.43146   0.115649  
         H         H         0.29682   0.56505   0.39092   0.108570  
         H         H         0.20000   0.91144   0.43632   0.109728  
         H         H         0.61651   0.36152   0.41542   0.119656  
         C         C         0.77051   0.87200   0.32084   -0.206397           
         C         C         0.32803   0.33523   0.34407   -0.151528           
         C         C         0.18724   0.15415   0.31879   -0.168159           
         C         C         0.69094   0.64986   0.34188   -0.170630           
         C         C         0.17480   0.84900   0.15851   -0.157853           
         C         C         0.72500   0.37751   0.15263   -0.197368           
         C         C         0.76643   0.13553   0.16298   -0.195716           
         C         C         0.31745   0.66517   0.16386   -0.164930           
         C         C         0.23507   0.13005   0.15363   -0.197853           
         C         C         0.72603   0.62836   0.15294   -0.197734           
         C         C         0.82183   0.84395   0.17115   -0.175928           
         C         C         0.25792   0.37823   0.17431   -0.198287           
         C         C         0.83144   0.14683   0.36811   -0.154299           
         C         C         0.26197   0.62148   0.31032   -0.199257           
         C         C         0.23399   0.86549   0.36247   -0.201366           
         C         C         0.68448   0.33644   0.34125   -0.171505           
         H         H         0.73811   0.87003   0.38930   0.116600  
         H         H         0.33982   0.30741   0.41264   0.144153  
         H         H         0.18345   0.17473   0.38255   0.130890  
         H         H         0.69175   0.66980   0.41029   0.119752  
         H         H         0.16762   0.83126   0.08143   0.131189  
         H         H         0.75377   0.38138   0.07448   0.115383  
         H         H         0.72799   0.14345   0.08326   0.118228  
         H         H         0.32463   0.69339   0.10268   0.134415  
         H         H         0.26742   0.13290   0.08482   0.118696  
         H         H         0.75365   0.63220   0.07268   0.104686  
         H         H         0.82812   0.82117   0.11788   0.137999  
         H         H         0.21599   0.38294   0.10619   0.115618  
         H         H         0.84084   0.16165   0.45421   0.130939  
         H         H         0.22509   0.61598   0.36541   0.108852  
         H         H         0.27000   0.85901   0.44908   0.118956  
         H         H         0.68361   0.30946   0.41599   0.137544  
         C         C         0.77842   0.84218   0.25447   0.201103  
         C         C         0.27332   0.34219   0.25989   0.196101  
         C         C         0.23037   0.15697   0.23452   0.199993  
         C         C         0.72662   0.65456   0.23905   0.206322  
         C         C         0.22384   0.84270   0.26290   0.199976  
         C         C         0.72376   0.34214   0.24552   0.201950  
         C         C         0.77923   0.15459   0.27390   0.198768  
         C         C         0.26993   0.65822   0.23423   0.205388  
         O         O         0.14855   0.76027   0.19588   -0.426964           
         O         O         0.66010   0.25063   0.33629   -0.437518           
         O         O         0.84334   0.24247   0.23389   -0.425500           
         O         O         0.34627   0.74466   0.27259   -0.427637           
         O         O         0.83518   0.75722   0.14763   -0.418167           
         O         O         0.34923   0.25703   0.26403   -0.425737           
         O         O         0.15452   0.24024   0.25688   -0.422560           
         O         O         0.67193   0.73745   0.35592   -0.429358           
         N         N         -0.00001  0.94584   0.23709   -0.384732           
         N         N         0.49934   0.44382   0.24542   -0.383187           
         N         N         0.00348   0.05670   0.23466   -0.385413           
         N         N         0.49908   0.55519   0.25916   -0.386397           
         Cu        Cu        0.00148   0.00159   0.23127   0.663450  
         Cu        Cu        0.49910   0.49936   0.25667   0.664157  
         N         N         0.23772   0.69112   0.70001   -0.212878           
         N         N         0.73011   0.18330   0.76532   -0.241359           
         N         N         0.76283   0.31186   0.75829   -0.233904           
         N         N         0.26176   0.81026   0.82138   -0.217772           
         N         N         0.76997   0.68495   0.75118   -0.240224           
         N         N         0.26152   0.18893   0.71093   -0.228668           
         N         N         0.22650   0.31218   0.77023   -0.234231           
         N         N         0.73576   0.81390   0.74169   -0.230482           
         C         C         0.24619   0.72380   0.74302   0.037751  
         C         C         0.74310   0.21836   0.78330   0.035502  
         C         C         0.75389   0.27458   0.78035   0.045688  
         C         C         0.25101   0.77692   0.78588   0.031585  
         C         C         0.75798   0.72230   0.73157   0.031742  
         C         C         0.25031   0.22335   0.73204   0.025063  
         C         C         0.23873   0.27769   0.75301   0.047639  
         C         C         0.74657   0.77871   0.72751   0.036621  
         C         C         0.20500   0.75647   0.71192   0.207659  
         C         C         0.70435   0.24924   0.79225   0.200353  
         C         C         0.79340   0.24331   0.77533   0.200294  
         C         C         0.29006   0.74361   0.82388   0.191686  
         C         C         0.79784   0.75441   0.73360   0.202240  
         C         C         0.28653   0.25701   0.71621   0.200513  
         C         C         0.20206   0.24422   0.76579   0.197523  
         C         C         0.70693   0.74709   0.72292   0.201040  
         H         H         0.19979   0.69035   0.63325   0.282907  
         H         H         0.68716   0.17766   0.74698   0.295042  
         H         H         0.80182   0.31969   0.73002   0.286812  
         H         H         0.29982   0.81077   0.88799   0.283269  
         H         H         0.81286   0.67766   0.77007   0.292403  
         H         H         0.29794   0.18649   0.66826   0.284097  
         H         H         0.18873   0.31505   0.80707   0.286654  
         H         H         0.69463   0.81948   0.75511   0.285387  
         C         C         0.95448   0.92199   0.75166   0.185338  
         C         C         0.44687   0.42053   0.72999   0.185539  
         C         C         0.04485   0.08040   0.73457   0.183588  
         C         C         0.54716   0.57607   0.76232   0.190637  
         C         C         0.04815   0.92252   0.74644   0.184455  
         C         C         0.54106   0.42013   0.73146   0.183516  
         C         C         0.95124   0.08009   0.74248   0.183119  
         C         C         0.45193   0.57678   0.75760   0.190560  
         C         C         0.97405   0.88301   0.77352   -0.177230           
         C         C         0.46309   0.38313   0.71635   -0.173556           
         C         C         0.02492   0.11948   0.70450   -0.177105           
         C         C         0.52999   0.61354   0.77101   -0.180573           
         C         C         0.03182   0.88341   0.77033   -0.181402           
         C         C         0.52121   0.38299   0.71611   -0.174314           
         C         C         0.96720   0.11927   0.70992   -0.179716           
         C         C         0.47159   0.61469   0.75925   -0.173576           
         H         H         0.94775   0.85834   0.79344   0.140358  
         H         H         0.43390   0.35996   0.70921   0.139041  
         H         H         0.05120   0.14400   0.67985   0.139521  
         H         H         0.55831   0.63658   0.78385   0.136281  
         H         H         0.06076   0.85919   0.78654   0.137608  
         H         H         0.54835   0.35991   0.70623   0.138979  
         H         H         0.93788   0.14343   0.69231   0.138380  
         H         H         0.44543   0.63970   0.75142   0.136141  
         N         N         0.41049   0.49831   0.75300   -0.378150           
         N         N         0.91417   0.00046   0.75645   -0.384405           
         N         N         0.58348   0.49859   0.74396   -0.383300           
         N         N         0.08592   0.00154   0.74230   -0.382244           
         C         C         0.37534   0.46713   0.75836   0.182724  
         C         C         0.87914   0.96952   0.75511   0.190043  
         C         C         0.61979   0.52922   0.74097   0.186899  
         C         C         0.12141   0.03199   0.74897   0.186951  
         C         C         0.61762   0.46771   0.74018   0.185419  
         C         C         0.12128   0.97180   0.73521   0.187913  
         C         C         0.37671   0.52793   0.76813   0.186532  
         C         C         0.87922   0.03003   0.76872   0.188029  
         C         C         0.31863   0.47731   0.77927   -0.186449           
         C         C         0.82131   0.98009   0.76719   -0.189269           
         C         C         0.67712   0.51729   0.72974   -0.187973           
         C         C         0.18053   0.02057   0.75212   -0.184488           
         C         C         0.67629   0.47919   0.73436   -0.184220           
         C         C         0.17987   0.98392   0.73687   -0.186280           
         C         C         0.31976   0.51459   0.78800   -0.184990           
         C         C         0.82182   0.01689   0.78118   -0.181174           
         H         H         0.28283   0.45827   0.78753   0.126073  
         H         H         0.78471   0.96194   0.76557   0.124054  
         H         H         0.71340   0.53564   0.71822   0.124274  
         H         H         0.21764   0.03822   0.76283   0.125035  
         H         H         0.71184   0.46049   0.73209   0.125021  
         H         H         0.21579   0.96670   0.72721   0.126479  
         H         H         0.28526   0.53122   0.80855   0.125825  
         H         H         0.78674   0.03364   0.79895   0.125409  
         C         C         0.89679   0.93273   0.74956   -0.074414           
         C         C         0.39091   0.43097   0.74308   -0.064034           
         C         C         0.10292   0.06925   0.74363   -0.070001           
         C         C         0.60411   0.56610   0.75190   -0.075247           
         C         C         0.10460   0.93442   0.73738   -0.070958           
         C         C         0.59900   0.43069   0.73760   -0.068102           
         C         C         0.89527   0.06796   0.75957   -0.067243           
         C         C         0.39431   0.56560   0.76363   -0.067879           
         C         C         0.85345   0.90271   0.74548   0.070759  
         C         C         0.34599   0.40114   0.74661   0.083747  
         C         C         0.14647   0.09903   0.74206   0.060693  
         C         C         0.64828   0.59643   0.74959   0.069874  
         C         C         0.14923   0.90500   0.74528   0.070302  
         C         C         0.64263   0.40028   0.74308   0.073234  
         C         C         0.85153   0.09718   0.76273   0.069063  
         C         C         0.35025   0.59534   0.76134   0.070302  
         C         C         0.32608   0.38538   0.87338   -0.120856           
         C         C         0.81223   0.89697   0.83772   -0.120985           
         C         C         0.70408   0.59004   0.82996   -0.121455           
         C         C         0.14517   0.12599   0.82700   -0.107742           
         C         C         0.67796   0.40250   0.63893   -0.120770           
         C         C         0.14269   0.87975   0.65363   -0.108619           
         C         C         0.29535   0.59804   0.67640   -0.116078           
         C         C         0.79723   0.10079   0.67577   -0.124466           
         C         C         0.63623   0.63338   0.66509   -0.102725           
         C         C         0.18938   0.10129   0.65476   -0.118549           
         C         C         0.32398   0.38746   0.62579   -0.124249           
         C         C         0.85470   0.87806   0.65151   -0.114200           
         C         C         0.36280   0.62398   0.83842   -0.103551           
         C         C         0.86370   0.12298   0.85195   -0.111351           
         C         C         0.64891   0.36794   0.85424   -0.112638           
         C         C         0.19718   0.89971   0.85343   -0.119662           
         H         H         0.81238   0.91424   0.91641   0.110366  
         H         H         0.34299   0.39517   0.96851   0.105631  
         H         H         0.11380   0.12377   0.89985   0.119756  
         H         H         0.71590   0.56250   0.89915   0.114165  
         H         H         0.10724   0.88437   0.56560   0.111384  
         H         H         0.67275   0.42651   0.54932   0.104863  
         H         H         0.78762   0.08249   0.60123   0.114704  
         H         H         0.28234   0.57636   0.61727   0.104441  
         H         H         0.18987   0.08146   0.58517   0.112532  
         H         H         0.59491   0.63949   0.59618   0.116968  
         H         H         0.88489   0.88279   0.57567   0.116877  
         H         H         0.33857   0.39946   0.52652   0.104695  
         H         H         0.90405   0.11984   0.92547   0.110665  
         H         H         0.40224   0.62109   0.91466   0.109150  
         H         H         0.20220   0.91834   0.92733   0.113819  
         H         H         0.62369   0.36616   0.93885   0.114886  
         C         C         0.77290   0.86798   0.83581   -0.193234           
         C         C         0.28580   0.35671   0.88009   -0.177948           
         C         C         0.18377   0.15545   0.81969   -0.173650           
         C         C         0.74449   0.61871   0.82769   -0.203163           
         C         C         0.18021   0.84872   0.67479   -0.171764           
         C         C         0.71793   0.37355   0.64590   -0.196321           
         C         C         0.75697   0.12877   0.67715   -0.204443           
         C         C         0.25740   0.62859   0.66240   -0.206111           
         C         C         0.22938   0.12993   0.64924   -0.200152           
         C         C         0.67499   0.66279   0.66529   -0.159246           
         C         C         0.81736   0.84793   0.65256   -0.161059           
         C         C         0.28408   0.35844   0.63161   -0.162755           
         C         C         0.82446   0.15170   0.85180   -0.157750           
         C         C         0.32762   0.65614   0.81733   -0.178732           
         C         C         0.23548   0.86922   0.87452   -0.199914           
         C         C         0.68807   0.33847   0.86137   -0.164820           
         H         H         0.74257   0.86351   0.91143   0.118930  
         H         H         0.27211   0.34370   0.97962   0.107399  
         H         H         0.18051   0.17661   0.88291   0.137403  
         H         H         0.78720   0.61252   0.89101   0.113493  
         H         H         0.17353   0.82877   0.60583   0.133271  
         H         H         0.74327   0.37493   0.56152   0.119102  
         H         H         0.71603   0.13185   0.60578   0.114123  
         H         H         0.21499   0.62949   0.59772   0.109488  
         H         H         0.26032   0.13204   0.57545   0.117502  
         H         H         0.66302   0.69080   0.59867   0.145390  
         H         H         0.81977   0.82914   0.57977   0.129121  
         H         H         0.26794   0.34777   0.53776   0.111983  
         H         H         0.83454   0.17106   0.92250   0.136083  
         H         H         0.34175   0.67919   0.86922   0.134902  
         H         H         0.27051   0.86429   0.96343   0.114361  
         H         H         0.69265   0.31396   0.94930   0.128178  
         C         C         0.77590   0.84345   0.74329   0.198381  
         C         C         0.26528   0.34311   0.75926   0.196433  
         C         C         0.22492   0.15769   0.72836   0.200191  
         C         C         0.72978   0.65550   0.74779   0.203862  
         C         C         0.22583   0.84298   0.78794   0.199775  
         C         C         0.72241   0.34127   0.75566   0.198870  
         C         C         0.77070   0.15458   0.76461   0.200611  
         C         C         0.27452   0.65879   0.72757   0.211417  
         O         O         0.15518   0.76170   0.65018   -0.415541           
         O         O         0.65271   0.25146   0.80129   -0.436650           
         O         O         0.84426   0.24091   0.76076   -0.426961           
         O         O         0.34003   0.73787   0.89004   -0.429693           
         O         O         0.85016   0.75852   0.74087   -0.425325           
         O         O         0.33445   0.26359   0.68213   -0.433484           
         O         O         0.15273   0.23864   0.79147   -0.423424           
         O         O         0.65443   0.74408   0.72010   -0.431489           
         N         N         0.00056   0.94582   0.73883   -0.383859           
         N         N         0.49488   0.44306   0.73699   -0.385103           
         N         N         -0.00117  0.05668   0.75127   -0.385838           
         N         N         0.49891   0.55354   0.75737   -0.387712           
         Cu        Cu        -0.00023  0.00123   0.74660   0.660089  
         Cu        Cu        0.49666   0.49869   0.74714   0.661231 

