
##########################################################################
#               Crystallographic Information Format file
#               Produced by PyCifRW module
#
#  This is a CIF file.  CIF has been adopted by the International
#  Union of Crystallography as the standard for data archiving and
#  transmission.
#
#  For information on this file format, follow the CIF links at
#  http://www.iucr.org
##########################################################################

data_image0

_cell_length_a                          27.1265
_cell_length_b                          47.2399
_cell_length_c                          8.34426
_cell_angle_alpha                       109.647
_cell_angle_beta                        77.6535
_cell_angle_gamma                       89.4384
_symmetry_space_group_name_H-M          'P 1'
_space_group_name_Hall                  'P 1'
loop_
  _atom_site_type_symbol
  _atom_site_label
  _atom_site_fract_x
  _atom_site_fract_y
  _atom_site_fract_z
  _atom_site_charge
         C         C         0.53979   0.69220   0.26452   0.372280  
         C         C         0.04126   0.19265   0.27386   0.374074  
         C         C         0.45861   0.69023   0.23023   0.377095  
         C         C         0.95891   0.19091   0.25306   0.377414  
         C         C         0.49943   0.73250   0.23913   0.375331  
         C         C         -0.00041  0.23292   0.25271   0.374329  
         N         N         0.54161   0.72054   0.26197   -0.410331           
         N         N         0.04295   0.22065   0.26575   -0.410829           
         N         N         0.45724   0.71809   0.21951   -0.416420           
         N         N         0.95684   0.21878   0.24306   -0.417273           
         N         N         0.49901   0.67625   0.25187   -0.416411           
         N         N         0.00001   0.17697   0.27085   -0.416895           
         C         C         0.58594   0.67744   0.27896   -0.001378           
         C         C         0.08802   0.17795   0.28419   -0.001735           
         C         C         0.41254   0.67400   0.22086   -0.001444           
         C         C         0.91309   0.17444   0.24247   0.000448  
         C         C         0.49941   0.76360   0.23705   -0.001622           
         C         C         -0.00081  0.26393   0.25071   -0.003367           
         C         C         0.63309   0.68861   0.23941   -0.091767           
         C         C         0.13504   0.18869   0.23665   -0.093422           
         C         C         0.36860   0.68718   0.20059   -0.096273           
         C         C         0.86670   0.18920   0.25219   -0.096216           
         C         C         0.46340   0.77499   0.17045   -0.102710           
         C         C         0.95906   0.27653   0.20733   -0.100882           
         C         C         0.53514   0.78261   0.30442   -0.092010           
         C         C         0.03831   0.28190   0.29803   -0.093730           
         C         C         0.41121   0.64532   0.23731   -0.097652           
         C         C         0.91499   0.14364   0.22087   -0.095378           
         C         C         0.58403   0.65146   0.32493   -0.100641           
         C         C         0.08672   0.15249   0.33561   -0.102345           
         C         C         0.62806   0.63697   0.33120   -0.137126           
         C         C         0.13140   0.13824   0.33948   -0.137034           
         C         C         0.36721   0.63048   0.23519   -0.139712           
         C         C         0.87189   0.12810   0.20867   -0.139410           
         C         C         0.53470   0.81212   0.30620   -0.138029           
         C         C         0.03701   0.31154   0.30279   -0.136864           
         C         C         0.46409   0.80429   0.16771   -0.140521           
         C         C         0.95831   0.30613   0.21073   -0.139390           
         C         C         0.32466   0.67222   0.19908   -0.139993           
         C         C         0.82348   0.17371   0.24372   -0.138666           
         C         C         0.67715   0.67365   0.24155   -0.142811           
         C         C         0.17960   0.17422   0.23896   -0.140948           
         C         C         0.95467   0.55306   0.25233   0.170210  
         C         C         0.45646   0.05414   0.26153   0.170282  
         C         C         0.04646   0.55244   0.24113   0.173140  
         C         C         0.54833   0.05280   0.24408   0.172978  
         C         C         0.90744   0.54578   0.32979   -0.172148           
         C         C         0.40938   0.04652   0.33743   -0.172034           
         C         C         0.09414   0.53669   0.15051   -0.178053           
         C         C         0.59497   0.03688   0.14357   -0.180448           
         C         C         0.86255   0.56098   0.33504   -0.125411           
         C         C         0.36455   0.06210   0.34653   -0.123006           
         C         C         0.13821   0.55150   0.15024   -0.124106           
         C         C         0.63958   0.05115   0.13915   -0.123145           
         C         C         0.86263   0.58496   0.27117   0.046128  
         C         C         0.36454   0.08689   0.28943   0.042426  
         C         C         0.13711   0.58275   0.23404   0.051723  
         C         C         0.63994   0.08204   0.23095   0.054072  
         C         C         0.91001   0.59257   0.19697   -0.119676           
         C         C         0.41184   0.09483   0.21754   -0.121002           
         C         C         0.08950   0.59841   0.32431   -0.119897           
         C         C         0.59326   0.09792   0.33020   -0.122403           
         C         C         0.95482   0.57648   0.18418   -0.189596           
         C         C         0.45672   0.07844   0.20036   -0.188672           
         C         C         0.04538   0.58362   0.33044   -0.178816           
         C         C         0.54859   0.08370   0.33823   -0.177687           
         H         H         0.90588   0.52854   0.38927   0.114473  
         H         H         0.40787   0.02876   0.39320   0.115210  
         H         H         0.09679   0.51257   0.08167   0.119450  
         H         H         0.59587   0.01298   0.07059   0.120740  
         H         H         0.82657   0.55523   0.39853   0.102176  
         H         H         0.32860   0.05617   0.40847   0.101131  
         H         H         0.17436   0.53865   0.07853   0.105857  
         H         H         0.67490   0.03830   0.05790   0.105499  
         H         H         0.91118   0.61016   0.13906   0.104064  
         H         H         0.41338   0.11316   0.16563   0.104407  
         H         H         0.08736   0.62257   0.39402   0.105514  
         H         H         0.59247   0.12175   0.40595   0.105487  
         H         H         0.99057   0.58181   0.11842   0.106835  
         H         H         0.49249   0.08419   0.13718   0.109059  
         H         H         0.00935   0.59642   0.40346   0.118392  
         H         H         0.51334   0.09686   0.41643   0.117321  
         C         C         0.96752   0.48754   0.16401   -0.172216           
         C         C         0.46979   0.98807   0.16034   -0.172522           
         C         C         0.03773   0.49542   0.30283   -0.188753           
         C         C         0.53819   0.99592   0.30834   -0.190530           
         C         C         0.96812   0.45812   0.16312   -0.121663           
         C         C         0.47005   0.95855   0.15802   -0.122399           
         C         C         0.03914   0.46565   0.29543   -0.121404           
         C         C         0.53853   0.96621   0.30278   -0.118651           
         H         H         0.94139   0.49517   0.10180   0.115564  
         H         H         0.44426   0.99593   0.09674   0.115997  
         H         H         0.06449   0.51009   0.36086   0.105960  
         H         H         0.56414   0.01069   0.37099   0.105642  
         H         H         0.94145   0.44386   0.10147   0.107275  
         H         H         0.44449   0.94408   0.09127   0.104928  
         H         H         0.06741   0.45802   0.34995   0.103040  
         H         H         0.56453   0.95868   0.36582   0.100593  
         C         C         0.81493   0.60088   0.27714   0.069220  
         C         C         0.31688   0.10288   0.29580   0.068312  
         C         C         0.18405   0.59814   0.22898   0.059329  
         C         C         0.68730   0.09706   0.22378   0.059681  
         C         C         0.77276   0.58503   0.23859   -0.135867           
         C         C         0.27488   0.08686   0.25713   -0.135157           
         C         C         0.22770   0.58590   0.25598   -0.137797           
         C         C         0.73075   0.08464   0.25042   -0.138802           
         C         C         0.72795   0.60000   0.24202   -0.127606           
         C         C         0.23058   0.10167   0.25422   -0.129565           
         C         C         0.27196   0.60057   0.25296   -0.130493           
         C         C         0.77503   0.09928   0.24893   -0.125793           
         C         C         0.72280   0.63154   0.28533   0.062656  
         C         C         0.22608   0.13311   0.29131   0.062873  
         C         C         0.27523   0.62795   0.22006   0.052433  
         C         C         0.77857   0.12658   0.21643   0.049622  
         C         C         0.76483   0.64735   0.32571   -0.128632           
         C         C         0.26787   0.14916   0.33235   -0.131651           
         C         C         0.23145   0.63975   0.19042   -0.128176           
         C         C         0.73531   0.13839   0.18446   -0.129782           
         C         C         0.80984   0.63241   0.32078   -0.135508           
         C         C         0.31230   0.13435   0.33436   -0.136585           
         C         C         0.18685   0.62543   0.19667   -0.133761           
         C         C         0.69056   0.12425   0.19099   -0.137024           
         H         H         0.77627   0.56049   0.19968   0.101954  
         H         H         0.27783   0.06241   0.22423   0.102782  
         H         H         0.22613   0.56523   0.28630   0.106033  
         H         H         0.72887   0.06408   0.28120   0.105340  
         H         H         0.69680   0.58699   0.20490   0.102863  
         H         H         0.19942   0.08865   0.21660   0.104955  
         H         H         0.30390   0.59082   0.28227   0.106932  
         H         H         0.80692   0.08982   0.27960   0.102346  
         H         H         0.76140   0.67182   0.36449   0.101883  
         H         H         0.26477   0.17360   0.36607   0.105195  
         H         H         0.23240   0.66014   0.15762   0.104453  
         H         H         0.73696   0.15846   0.14886   0.107000  
         H         H         0.84140   0.64533   0.35548   0.102544  
         H         H         0.34365   0.14726   0.37103   0.102589  
         H         H         0.15449   0.63475   0.16722   0.103868  
         H         H         0.65800   0.13374   0.16379   0.105663  
         C         C         0.03647   0.40356   0.30830   -0.136094           
         C         C         0.54257   0.90158   0.27036   -0.134817           
         C         C         0.96360   0.39694   0.18579   -0.135028           
         C         C         0.46101   0.89855   0.20103   -0.133844           
         C         C         0.03453   0.37465   0.31595   -0.126754           
         C         C         0.54186   0.87207   0.26879   -0.125340           
         C         C         0.96199   0.36790   0.19153   -0.129173           
         C         C         0.46036   0.86899   0.19909   -0.129553           
         H         H         0.06534   0.41720   0.35966   0.100527  
         H         H         0.57545   0.91370   0.29827   0.103901  
         H         H         0.93505   0.40474   0.13330   0.100433  
         H         H         0.42860   0.90841   0.17499   0.103326  
         H         H         0.06154   0.36731   0.37618   0.101361  
         H         H         0.57420   0.86241   0.29643   0.104956  
         H         H         0.93269   0.35431   0.14238   0.102969  
         H         H         0.42740   0.85691   0.17205   0.105754  
         N         N         0.00100   0.53750   0.24407   -0.121327           
         N         N         0.50263   0.03815   0.24805   -0.122728           
         C         C         0.00177   0.50712   0.23796   0.171665  
         C         C         0.50327   0.00760   0.23922   0.171793  
         C         C         0.00344   0.44617   0.23054   0.041310  
         C         C         0.50380   0.94666   0.23118   0.038028  
         C         C         0.00147   0.41563   0.24050   0.060858  
         C         C         0.50233   0.91571   0.23493   0.063933  
         C         C         0.99776   0.35560   0.25523   0.050678  
         C         C         0.50087   0.85476   0.23258   0.055227  
         H         H         0.63439   0.70850   0.20158   0.112182  
         H         H         0.13612   0.20802   0.19373   0.110813  
         H         H         0.36929   0.70933   0.18715   0.111875  
         H         H         0.86527   0.21309   0.26987   0.108990  
         H         H         0.43588   0.76027   0.11727   0.111010  
         H         H         0.92896   0.26256   0.16943   0.110161  
         H         H         0.56211   0.77398   0.35985   0.107337  
         H         H         0.06899   0.27216   0.33373   0.113532  
         H         H         0.44528   0.63514   0.25309   0.109947  
         H         H         0.95106   0.13234   0.21254   0.109550  
         H         H         0.54737   0.64323   0.35869   0.110574  
         H         H         0.05026   0.14455   0.37583   0.111375  
         C         C         0.67570   0.64748   0.28657   0.072287  
         C         C         0.17881   0.14863   0.28977   0.068437  
         C         C         0.32246   0.64355   0.21746   0.068020  
         C         C         0.82491   0.14275   0.22149   0.074632  
         C         C         0.49974   0.82367   0.23546   0.067620  
         C         C         0.99727   0.32451   0.25801   0.071559  
         H         H         0.71370   0.68160   0.20213   0.100200  
         H         H         0.62580   0.61773   0.37515   0.106568  
         H         H         0.21597   0.18200   0.19544   0.100282  
         H         H         0.12962   0.11938   0.38716   0.106660  
         H         H         0.29127   0.68334   0.18569   0.103831  
         H         H         0.36800   0.60842   0.24923   0.104859  
         H         H         0.78781   0.18598   0.25734   0.102746  
         H         H         0.87503   0.10409   0.18750   0.102508  
         H         H         0.43729   0.81187   0.10719   0.100986  
         H         H         0.92719   0.31491   0.17296   0.104702  
         H         H         0.56124   0.82660   0.36782   0.104136  
         H         H         0.06765   0.32477   0.34251   0.105136  
         C         C         0.53940   0.69175   0.75547   0.374872  
         C         C         0.03889   0.19239   0.77851   0.376022  
         C         C         0.45788   0.68968   0.72412   0.376940  
         C         C         0.95705   0.19140   0.75222   0.376957  
         C         C         0.49901   0.73167   0.72661   0.372196  
         C         C         0.99863   0.23334   0.75893   0.375813  
         N         N         0.54148   0.71977   0.74790   -0.410430           
         N         N         0.04116   0.22070   0.77536   -0.412389           
         N         N         0.45640   0.71746   0.71215   -0.417520           
         N         N         0.95557   0.21956   0.74639   -0.416460           
         N         N         0.49849   0.67587   0.74538   -0.418596           
         N         N         0.99775   0.17679   0.76789   -0.417155           
         C         C         0.58521   0.67705   0.77226   -0.003450           
         C         C         0.08485   0.17700   0.78974   -0.001503           
         C         C         0.41175   0.67343   0.71694   -0.001525           
         C         C         0.91095   0.17525   0.74108   -0.000305           
         C         C         0.49902   0.76279   0.72574   -0.002950           
         C         C         -0.00085  0.26430   0.75502   -0.003938           
         C         C         0.63252   0.68808   0.73306   -0.091870           
         C         C         0.13217   0.18790   0.74962   -0.091182           
         C         C         0.36717   0.68723   0.70506   -0.095639           
         C         C         0.86384   0.19092   0.76876   -0.096748           
         C         C         0.45770   0.77642   0.69387   -0.100974           
         C         C         0.96073   0.27643   0.70149   -0.100387           
         C         C         0.53970   0.77995   0.76497   -0.088013           
         C         C         0.03737   0.28258   0.80823   -0.090761           
         C         C         0.41071   0.64431   0.72679   -0.097619           
         C         C         0.91345   0.14386   0.70334   -0.095852           
         C         C         0.58258   0.65117   0.81990   -0.097596           
         C         C         0.08252   0.15051   0.83127   -0.103152           
         C         C         0.62632   0.63663   0.82858   -0.139499           
         C         C         0.12653   0.13533   0.83343   -0.136368           
         C         C         0.36651   0.62961   0.72600   -0.138015           
         C         C         0.87009   0.12851   0.69145   -0.137325           
         C         C         0.53915   0.80975   0.77106   -0.137013           
         C         C         0.03665   0.31210   0.80990   -0.136373           
         C         C         0.45738   0.80627   0.70051   -0.137758           
         C         C         0.96064   0.30582   0.70080   -0.137976           
         C         C         0.32299   0.67261   0.70654   -0.138160           
         C         C         0.82029   0.17570   0.76274   -0.137932           
         C         C         0.67614   0.67329   0.73978   -0.141035           
         C         C         0.17613   0.17232   0.74769   -0.142038           
         C         C         0.95202   0.55319   0.75762   0.168972  
         C         C         0.45506   0.05384   0.75461   0.167545  
         C         C         0.04380   0.55311   0.74388   0.174850  
         C         C         0.54721   0.05275   0.73380   0.173269  
         C         C         0.90517   0.54544   0.83454   -0.169801           
         C         C         0.40881   0.04647   0.83831   -0.171419           
         C         C         0.09127   0.53726   0.65215   -0.180141           
         C         C         0.59516   0.03717   0.64349   -0.179912           
         C         C         0.86018   0.56052   0.84044   -0.126765           
         C         C         0.36328   0.06141   0.84785   -0.125817           
         C         C         0.13536   0.55207   0.64562   -0.121093           
         C         C         0.63908   0.05215   0.64290   -0.122648           
         C         C         0.85980   0.58489   0.77995   0.045004  
         C         C         0.36187   0.08531   0.78417   0.045241  
         C         C         0.13475   0.58343   0.72752   0.051013  
         C         C         0.63764   0.08348   0.72750   0.050666  
         C         C         0.90686   0.59276   0.70590   -0.122364           
         C         C         0.40840   0.09331   0.70680   -0.119642           
         C         C         0.08727   0.59917   0.81839   -0.124273           
         C         C         0.58981   0.09904   0.81683   -0.123922           
         C         C         0.95190   0.57672   0.69066   -0.188645           
         C         C         0.45389   0.07743   0.68841   -0.186562           
         C         C         0.04306   0.58448   0.82871   -0.178260           
         C         C         0.54589   0.08404   0.82258   -0.177540           
         H         H         0.90407   0.52809   0.89337   0.114852  
         H         H         0.40860   0.02926   0.89780   0.114780  
         H         H         0.09335   0.51301   0.58624   0.116721  
         H         H         0.59832   0.01296   0.57486   0.117486  
         H         H         0.82432   0.55445   0.90202   0.101190  
         H         H         0.32798   0.05553   0.91426   0.102999  
         H         H         0.17125   0.53910   0.57145   0.104968  
         H         H         0.67554   0.03941   0.57162   0.105431  
         H         H         0.90774   0.61058   0.65010   0.105292  
         H         H         0.40845   0.11095   0.64996   0.104739  
         H         H         0.08521   0.62341   0.88624   0.106093  
         H         H         0.58711   0.12321   0.88779   0.105886  
         H         H         0.98744   0.58220   0.62456   0.107916  
         H         H         0.48900   0.08310   0.62039   0.105831  
         H         H         0.00731   0.59758   0.90157   0.117617  
         H         H         0.50972   0.09679   0.89482   0.116463  
         C         C         0.96753   0.48746   0.65989   -0.171215           
         C         C         0.46690   0.98810   0.66103   -0.171799           
         C         C         0.03424   0.49658   0.81607   -0.190674           
         C         C         0.53821   0.99522   0.79333   -0.188661           
         C         C         0.96856   0.45800   0.65880   -0.120465           
         C         C         0.46687   0.95872   0.66080   -0.121796           
         C         C         0.03562   0.46690   0.81108   -0.116745           
         C         C         0.53903   0.96542   0.78646   -0.122961           
         H         H         0.94245   0.49481   0.59288   0.116480  
         H         H         0.43987   0.99608   0.60367   0.116237  
         H         H         0.05902   0.51180   0.88270   0.106212  
         H         H         0.56554   0.00951   0.85037   0.106562  
         H         H         0.94411   0.44301   0.58874   0.103904  
         H         H         0.43858   0.94502   0.60545   0.106759  
         H         H         0.06118   0.45987   0.87774   0.099345  
         H         H         0.56737   0.95739   0.83915   0.104334  
         C         C         0.81195   0.60088   0.78767   0.070012  
         C         C         0.31348   0.10067   0.79140   0.069676  
         C         C         0.18190   0.59875   0.72293   0.058833  
         C         C         0.68456   0.09896   0.72455   0.062439  
         C         C         0.77049   0.58476   0.74334   -0.136249           
         C         C         0.27217   0.08413   0.74965   -0.138574           
         C         C         0.22486   0.58641   0.75327   -0.138117           
         C         C         0.72849   0.08594   0.74520   -0.137929           
         C         C         0.72614   0.59973   0.74249   -0.130708           
         C         C         0.22714   0.09848   0.74893   -0.128580           
         C         C         0.26936   0.60084   0.75281   -0.124465           
         C         C         0.77288   0.10047   0.74384   -0.127959           
         C         C         0.72102   0.63146   0.78885   0.062405  
         C         C         0.22138   0.13007   0.79164   0.060656  
         C         C         0.27381   0.62804   0.71874   0.050490  
         C         C         0.77584   0.12839   0.71880   0.051480  
         C         C         0.76234   0.64758   0.83533   -0.130476           
         C         C         0.26243   0.14658   0.83681   -0.130024           
         C         C         0.23070   0.63999   0.68631   -0.127734           
         C         C         0.73209   0.14107   0.69454   -0.125686           
         C         C         0.80690   0.63255   0.83432   -0.137657           
         C         C         0.30749   0.13224   0.83607   -0.135877           
         C         C         0.18577   0.62600   0.69006   -0.137234           
         C         C         0.68731   0.12691   0.69983   -0.138731           
         H         H         0.77414   0.56012   0.70343   0.102879  
         H         H         0.27640   0.05960   0.71228   0.102714  
         H         H         0.22238   0.56587   0.78493   0.105509  
         H         H         0.72703   0.06492   0.77132   0.103435  
         H         H         0.69546   0.58677   0.69943   0.105367  
         H         H         0.19659   0.08496   0.70885   0.105081  
         H         H         0.30060   0.59102   0.78471   0.103033  
         H         H         0.80515   0.09062   0.77043   0.105222  
         H         H         0.75899   0.67223   0.87593   0.106038  
         H         H         0.25814   0.17115   0.87633   0.105310  
         H         H         0.23261   0.66021   0.65205   0.103726  
         H         H         0.73330   0.16189   0.66661   0.104761  
         H         H         0.83806   0.64545   0.87420   0.104300  
         H         H         0.33828   0.14551   0.87554   0.104120  
         H         H         0.15390   0.63557   0.65933   0.105880  
         H         H         0.65429   0.13702   0.67828   0.103268  
         C         C         0.03886   0.40313   0.79479   -0.137237           
         C         C         0.53517   0.90356   0.80158   -0.139455           
         C         C         0.96108   0.39797   0.70050   -0.133040           
         C         C         0.46543   0.89592   0.66233   -0.132768           
         C         C         0.03786   0.37404   0.79976   -0.129683           
         C         C         0.53409   0.87447   0.80664   -0.126105           
         C         C         0.96049   0.36866   0.70250   -0.132785           
         C         C         0.46449   0.86672   0.66615   -0.133851           
         H         H         0.07009   0.41609   0.83221   0.104272  
         H         H         0.56259   0.91758   0.86022   0.101542  
         H         H         0.93010   0.40666   0.66179   0.102161  
         H         H         0.43859   0.90329   0.60177   0.098645  
         H         H         0.06795   0.36586   0.84486   0.107424  
         H         H         0.56038   0.86721   0.86985   0.099830  
         H         H         0.92949   0.35567   0.66293   0.107166  
         H         H         0.43730   0.85248   0.60701   0.106165  
         N         N         0.99854   0.53803   0.74902   -0.121519           
         N         N         0.50180   0.03780   0.73691   -0.119735           
         C         C         -0.00013  0.50756   0.74220   0.168771  
         C         C         0.50231   0.00733   0.73022   0.171392  
         C         C         0.00198   0.44680   0.73613   0.040483  
         C         C         0.50281   0.94617   0.72296   0.042165  
         C         C         0.00069   0.41607   0.74345   0.061341  
         C         C         0.50124   0.91528   0.72843   0.060684  
         C         C         -0.00091  0.35558   0.75124   0.055916  
         C         C         0.49874   0.85501   0.73824   0.051400  
         H         H         0.63421   0.70770   0.69213   0.111489  
         H         H         0.13369   0.20814   0.71465   0.112526  
         H         H         0.36787   0.70969   0.69644   0.110800  
         H         H         0.86202   0.21521   0.79879   0.110396  
         H         H         0.42635   0.76306   0.66265   0.111266  
         H         H         0.93133   0.26230   0.65849   0.109477  
         H         H         0.57145   0.76955   0.79173   0.111723  
         H         H         0.06664   0.27338   0.85268   0.111396  
         H         H         0.44506   0.63346   0.73599   0.111227  
         H         H         0.94999   0.13180   0.68198   0.110690  
         H         H         0.54575   0.64300   0.85224   0.110852  
         H         H         0.04563   0.14246   0.86459   0.111639  
         C         C         0.67414   0.64720   0.78644   0.072556  
         C         C         0.17432   0.14580   0.79004   0.072094  
         C         C         0.32118   0.64342   0.71712   0.068551  
         C         C         0.82242   0.14416   0.72310   0.072653  
         C         C         0.49804   0.82380   0.73884   0.070036  
         C         C         0.99858   0.32454   0.75490   0.067205  
         H         H         0.71290   0.68116   0.70142   0.101304  
         H         H         0.62361   0.61723   0.87175   0.106641  
         H         H         0.21282   0.18008   0.70758   0.101436  
         H         H         0.12393   0.11557   0.87340   0.106550  
         H         H         0.28916   0.68442   0.70073   0.104004  
         H         H         0.36753   0.60702   0.73257   0.104427  
         H         H         0.78370   0.18846   0.79371   0.102176  
         H         H         0.87338   0.10401   0.65578   0.103002  
         H         H         0.42490   0.81587   0.67343   0.105084  
         H         H         0.93097   0.31417   0.65437   0.101868  
         H         H         0.57139   0.82229   0.80059   0.106198  
         H         H         0.06615   0.32567   0.85705   0.104114 

