
##########################################################################
#               Crystallographic Information Format file
#               Produced by PyCifRW module
#
#  This is a CIF file.  CIF has been adopted by the International
#  Union of Crystallography as the standard for data archiving and
#  transmission.
#
#  For information on this file format, follow the CIF links at
#  http://www.iucr.org
##########################################################################

data_image0

_cell_length_a                          27.246
_cell_length_b                          27.3547
_cell_length_c                          7.93162
_cell_angle_alpha                       87.2967
_cell_angle_beta                        87.8137
_cell_angle_gamma                       60.1327
_symmetry_space_group_name_H-M          'P 1'
_space_group_name_Hall                  'P 1'
loop_
  _atom_site_type_symbol
  _atom_site_label
  _atom_site_fract_x
  _atom_site_fract_y
  _atom_site_fract_z
  _atom_site_charge
         C         C         0.23147   0.61892   0.74710   0.377176  
         C         C         0.14788   0.61949   0.73510   0.377774  
         C         C         0.23098   0.53589   0.74208   0.375804  
         N         N         0.26151   0.56218   0.75169   -0.411531           
         N         N         0.17400   0.56276   0.73143   -0.410813           
         N         N         0.17463   0.64957   0.74057   -0.413268           
         C         C         0.26266   0.65004   0.74968   -0.000945           
         C         C         0.08545   0.65159   0.73757   -0.001987           
         C         C         0.26232   0.47363   0.74440   0.000068  
         C         C         0.31881   0.62297   0.80432   -0.099797           
         C         C         0.05398   0.62819   0.67867   -0.091220           
         C         C         0.23362   0.44301   0.73708   -0.098085           
         C         C         0.32166   0.44384   0.75414   -0.089935           
         C         C         0.05686   0.70583   0.80367   -0.100288           
         C         C         0.23635   0.70718   0.69773   -0.091012           
         C         C         0.26548   0.73679   0.70091   -0.117557           
         C         C         0.99801   0.73545   0.81382   -0.141139           
         C         C         0.35145   0.38534   0.75405   -0.113747           
         C         C         0.26359   0.38439   0.73609   -0.139123           
         C         C         0.99519   0.65800   0.68779   -0.118587           
         C         C         0.34765   0.65285   0.80954   -0.140646           
         C         C         0.50657   0.89370   0.76062   0.174719  
         C         C         0.59702   0.89447   0.75881   0.172324  
         C         C         0.45310   0.91709   0.68626   -0.176905           
         C         C         0.62655   0.91801   0.83085   -0.180039           
         C         C         0.42392   0.88743   0.68793   -0.097230           
         C         C         0.68542   0.88949   0.83277   -0.124298           
         C         C         0.44754   0.83253   0.75924   0.055623  
         C         C         0.71756   0.83545   0.76728   0.061803  
         C         C         0.50090   0.80916   0.83296   -0.123296           
         C         C         0.68802   0.81198   0.69497   -0.101243           
         C         C         0.52935   0.83950   0.83702   -0.180722           
         C         C         0.62928   0.84126   0.68760   -0.174143           
         H         H         0.43430   0.95892   0.62680   0.112729  
         H         H         0.60286   0.95922   0.88529   0.112870  
         H         H         0.38318   0.90584   0.62667   0.111076  
         H         H         0.70659   0.90877   0.89260   0.103398  
         H         H         0.51922   0.76762   0.89506   0.105159  
         H         H         0.71176   0.77121   0.63707   0.109140  
         H         H         0.56954   0.82107   0.90079   0.114365  
         H         H         0.60833   0.82234   0.62558   0.111384  
         C         C         0.45435   0.01585   0.83413   -0.180422           
         C         C         0.52879   0.01409   0.65976   -0.174254           
         C         C         0.42649   0.07439   0.82856   -0.118136           
         C         C         0.50111   0.07259   0.65516   -0.105498           
         H         H         0.43513   0.99453   0.90424   0.111039  
         H         H         0.56875   0.99115   0.59212   0.108221  
         H         H         0.38707   0.09620   0.90026   0.101794  
         H         H         0.52023   0.09355   0.58283   0.111047  
         C         C         0.41643   0.80142   0.75917   0.012885  
         C         C         0.77983   0.80485   0.77027   0.012027  
         C         C         0.35948   0.82652   0.82213   0.114162  
         C         C         0.81203   0.82966   0.71953   -0.137882           
         C         C         0.32780   0.79677   0.82265   0.113466  
         C         C         0.87205   0.79983   0.71717   -0.130589           
         C         C         0.35278   0.74106   0.76012   0.008623  
         C         C         0.90398   0.74322   0.76543   0.010923  
         C         C         0.40877   0.71759   0.70493   -0.131912           
         C         C         0.87252   0.71675   0.82622   0.114807  
         C         C         0.43967   0.74668   0.70439   -0.136359           
         C         C         0.81104   0.74725   0.82857   0.115413  
         H         H         0.79032   0.87332   0.67257   0.110407  
         H         H         0.89439   0.82149   0.66934   0.111942  
         H         H         0.42916   0.67544   0.65472   0.113452  
         H         H         0.48283   0.72586   0.65403   0.109478  
         C         C         0.44121   0.20062   0.65617   0.117167  
         C         C         0.36484   0.19894   0.80701   -0.135630           
         C         C         0.40953   0.26216   0.65753   0.113637  
         C         C         0.33456   0.25834   0.80947   -0.133120           
         H         H         0.34478   0.17688   0.86838   0.106941  
         H         H         0.29376   0.27833   0.87520   0.112514  
         N         N         0.53661   0.92393   0.75822   -0.117819           
         C         C         0.50668   0.98400   0.75058   0.173443  
         C         C         0.44880   0.10511   0.73936   0.059480  
         C         C         0.41872   0.16722   0.73473   0.008544  
         C         C         0.35504   0.29228   0.73795   0.006938  
         H         H         0.33851   0.57885   0.84541   0.113038  
         H         H         0.07632   0.58668   0.62446   0.113248  
         H         H         0.18769   0.46638   0.73062   0.110402  
         H         H         0.34387   0.46746   0.76098   0.110002  
         H         H         0.08152   0.72353   0.85031   0.112707  
         H         H         0.19314   0.72755   0.65307   0.114261  
         C         C         0.32152   0.71010   0.75763   0.081658  
         C         C         0.96630   0.71197   0.75615   0.079038  
         C         C         0.32323   0.35425   0.74285   0.085456  
         H         H         0.39045   0.63230   0.85791   0.101723  
         H         H         0.97094   0.64040   0.63782   0.106585  
         H         H         0.24552   0.78054   0.65643   0.109073  
         H         H         0.97630   0.77650   0.87120   0.100371  
         H         H         0.24074   0.36147   0.72616   0.100414  
         H         H         0.39718   0.36301   0.76281   0.107612  
         N         N         0.49170   0.18082   0.57377   -0.348886           
         S         S         0.49632   0.23532   0.50463   0.411206  
         N         N         0.43660   0.28639   0.57365   -0.346480           
         N         N         0.33078   0.87741   0.89473   -0.351853           
         S         S         0.26968   0.88485   0.95508   0.414115  
         N         N         0.27569   0.82594   0.89543   -0.345674           
         N         N         0.89490   0.66357   0.89316   -0.345742           
         S         S         0.84149   0.65532   0.95164   0.406301  
         N         N         0.78824   0.71656   0.89728   -0.354497           
         C         C         0.23256   0.61774   0.24017   0.377617  
         C         C         0.14947   0.61703   0.23012   0.377058  
         C         C         0.23307   0.53415   0.24317   0.376347  
         N         N         0.26304   0.56104   0.25118   -0.411514           
         N         N         0.17620   0.56027   0.23322   -0.410718           
         N         N         0.17574   0.64779   0.22875   -0.414004           
         C         C         0.26359   0.64916   0.24146   -0.000316           
         C         C         0.08702   0.64776   0.23257   -0.000380           
         C         C         0.26471   0.47200   0.24519   -0.001082           
         C         C         0.31865   0.62321   0.30466   -0.101398           
         C         C         0.05668   0.62032   0.19858   -0.092956           
         C         C         0.23666   0.44138   0.22433   -0.095814           
         C         C         0.32370   0.44247   0.26458   -0.091081           
         C         C         0.05721   0.70478   0.27479   -0.098165           
         C         C         0.23852   0.70521   0.17934   -0.091721           
         C         C         0.26740   0.73511   0.18330   -0.118480           
         C         C         0.99845   0.73339   0.28508   -0.139700           
         C         C         0.35397   0.38401   0.26123   -0.114440           
         C         C         0.26700   0.38288   0.22063   -0.140311           
         C         C         0.99789   0.64910   0.20781   -0.114184           
         C         C         0.34746   0.65321   0.30891   -0.140621           
         C         C         0.50785   0.89311   0.26079   0.171356  
         C         C         0.59899   0.89205   0.26070   0.172797  
         C         C         0.45694   0.91476   0.17323   -0.176163           
         C         C         0.63003   0.91386   0.33338   -0.178367           
         C         C         0.42704   0.88584   0.17287   -0.099162           
         C         C         0.68894   0.88383   0.33272   -0.121794           
         C         C         0.44791   0.83294   0.25607   0.059936  
         C         C         0.71934   0.82996   0.26532   0.057458  
         C         C         0.49889   0.81109   0.34277   -0.124056           
         C         C         0.68835   0.80778   0.19481   -0.099045           
         C         C         0.52780   0.84098   0.34816   -0.175297           
         C         C         0.62958   0.83866   0.18956   -0.175316           
         H         H         0.44060   0.95482   0.10433   0.108256  
         H         H         0.60792   0.95486   0.38975   0.111640  
         H         H         0.38840   0.90302   0.10069   0.110316  
         H         H         0.71184   0.90147   0.39163   0.104194  
         H         H         0.51495   0.77115   0.41330   0.102095  
         H         H         0.71079   0.76717   0.13526   0.109216  
         H         H         0.56610   0.82376   0.42112   0.111268  
         H         H         0.60695   0.82109   0.12946   0.112656  
         C         C         0.45477   0.01488   0.32034   -0.185181           
         C         C         0.53350   0.01260   0.16808   -0.179706           
         C         C         0.42672   0.07341   0.31113   -0.117792           
         C         C         0.50569   0.07115   0.16175   -0.104425           
         H         H         0.43422   0.99367   0.38375   0.117897  
         H         H         0.57512   0.98964   0.10942   0.110129  
         H         H         0.38489   0.09539   0.36973   0.101955  
         H         H         0.52642   0.09212   0.09834   0.111148  
         C         C         0.41666   0.80183   0.25493   0.014290  
         C         C         0.78166   0.79852   0.26654   0.014430  
         C         C         0.35935   0.82699   0.31426   0.113902  
         C         C         0.81384   0.82177   0.20178   -0.134535           
         C         C         0.32794   0.79691   0.31387   0.113831  
         C         C         0.87374   0.79183   0.19817   -0.129966           
         C         C         0.35344   0.74085   0.25339   0.010716  
         C         C         0.90568   0.73681   0.26107   0.008412  
         C         C         0.40983   0.71737   0.20200   -0.133009           
         C         C         0.87422   0.71199   0.33510   0.115335  
         C         C         0.44044   0.74679   0.20298   -0.135624           
         C         C         0.81273   0.74247   0.33703   0.113284  
         H         H         0.79192   0.86407   0.14460   0.109616  
         H         H         0.89586   0.81200   0.13733   0.111106  
         H         H         0.43097   0.67494   0.15382   0.113388  
         H         H         0.48397   0.72599   0.15562   0.109695  
         C         C         0.44351   0.19950   0.14873   0.115818  
         C         C         0.36792   0.19789   0.30420   -0.136076           
         C         C         0.41210   0.26103   0.15115   0.113092  
         C         C         0.33772   0.25728   0.30672   -0.131226           
         H         H         0.34814   0.17616   0.36933   0.107030  
         H         H         0.29740   0.27742   0.37500   0.111003  
         N         N         0.53859   0.92282   0.25912   -0.121475           
         C         C         0.50926   0.98273   0.24880   0.177767  
         C         C         0.45118   0.10394   0.23326   0.056302  
         C         C         0.42121   0.16608   0.22854   0.007667  
         C         C         0.35800   0.29107   0.23303   0.005485  
         H         H         0.33756   0.57980   0.35238   0.112527  
         H         H         0.07990   0.57628   0.16499   0.113508  
         H         H         0.19107   0.46455   0.20800   0.109463  
         H         H         0.34504   0.46644   0.28195   0.110378  
         H         H         0.08116   0.72541   0.30237   0.112877  
         H         H         0.19651   0.72446   0.12596   0.113066  
         C         C         0.32226   0.70968   0.24915   0.081624  
         C         C         0.96786   0.70606   0.25180   0.081723  
         C         C         0.32626   0.35298   0.23828   0.086917  
         H         H         0.38951   0.63333   0.36243   0.101274  
         H         H         0.97452   0.62807   0.17847   0.109226  
         H         H         0.24841   0.77783   0.13010   0.107607  
         H         H         0.97574   0.77696   0.32393   0.102994  
         H         H         0.24483   0.35994   0.19885   0.100987  
         H         H         0.39944   0.36182   0.27787   0.107868  
         N         N         0.49360   0.17978   0.06411   -0.348353           
         S         S         0.49833   0.23430   0.99561   0.409621  
         N         N         0.43895   0.28539   0.06679   -0.347629           
         N         N         0.32992   0.87836   0.38353   -0.354141           
         S         S         0.26852   0.88580   0.44030   0.410257  
         N         N         0.27530   0.82631   0.38307   -0.347808           
         N         N         0.89651   0.66058   0.41456   -0.344490           
         S         S         0.84309   0.65363   0.48230   0.414129  
         N         N         0.78993   0.71341   0.41742   -0.352695 

