
##########################################################################
#               Crystallographic Information Format file
#               Produced by PyCifRW module
#
#  This is a CIF file.  CIF has been adopted by the International
#  Union of Crystallography as the standard for data archiving and
#  transmission.
#
#  For information on this file format, follow the CIF links at
#  http://www.iucr.org
##########################################################################

data_image0

_cell_length_a                          19.7351
_cell_length_b                          19.7462
_cell_length_c                          8.22997
_cell_angle_alpha                       91.1259
_cell_angle_beta                        92.6282
_cell_angle_gamma                       120.544
_symmetry_space_group_name_H-M          'P 1'
_space_group_name_Hall                  'P 1'
loop_
  _atom_site_type_symbol
  _atom_site_label
  _atom_site_fract_x
  _atom_site_fract_y
  _atom_site_fract_z
  _atom_site_charge
         C         C         0.25780   0.62872   0.26482   0.376542  
         C         C         0.37424   0.63090   0.25676   0.375663  
         C         C         0.37308   0.74564   0.25536   0.376796  
         N         N         0.29524   0.58762   0.26428   -0.410507           
         N         N         0.41581   0.70997   0.25008   -0.413202           
         N         N         0.29423   0.70782   0.26302   -0.412045           
         C         C         0.17093   0.58473   0.26520   -0.003282           
         C         C         0.41802   0.58872   0.25466   -0.004615           
         C         C         0.41547   0.83234   0.25227   -0.003954           
         C         C         0.12862   0.50358   0.28944   -0.094517           
         C         C         0.50090   0.63037   0.26363   -0.092359           
         C         C         0.37830   0.87390   0.29707   -0.095328           
         C         C         0.49320   0.87439   0.20436   -0.095586           
         C         C         0.37731   0.50601   0.24332   -0.091931           
         C         C         0.12911   0.62393   0.23708   -0.095057           
         C         C         0.04729   0.58326   0.23430   -0.142232           
         C         C         0.41859   0.46630   0.24108   -0.141426           
         C         C         0.53284   0.95615   0.20226   -0.143536           
         C         C         0.41829   0.95568   0.29564   -0.144488           
         C         C         0.54191   0.59028   0.26282   -0.142382           
         C         C         0.04661   0.46297   0.28584   -0.141220           
         C         C         0.54640   0.20758   0.17153   -0.180995           
         C         C         0.50514   0.12570   0.17417   -0.121501           
         H         H         0.51890   0.23680   0.11133   0.112629  
         H         H         0.44650   0.09239   0.11306   0.106065  
         C         C         0.78913   0.34726   0.16492   -0.176530           
         C         C         0.87105   0.38649   0.16968   -0.118448           
         H         H         0.75480   0.29169   0.09555   0.108353  
         H         H         0.89968   0.36188   0.09988   0.107175  
         C         C         0.65539   0.45155   0.17219   -0.176991           
         C         C         0.61604   0.49331   0.17575   -0.117910           
         H         H         0.70911   0.47423   0.10832   0.112376  
         H         H         0.63944   0.54789   0.11246   0.107291  
         C         C         0.79568   0.45064   0.33634   -0.177093           
         C         C         0.87765   0.49078   0.33727   -0.119163           
         H         H         0.76672   0.47529   0.40426   0.110885  
         H         H         0.91163   0.54623   0.40833   0.104845  
         C         C         0.65653   0.21239   0.32101   -0.180410           
         C         C         0.61582   0.13056   0.31972   -0.119499           
         H         H         0.71527   0.24587   0.38043   0.111333  
         H         H         0.64279   0.10110   0.38181   0.105953  
         C         C         0.55499   0.35106   0.32616   -0.179212           
         C         C         0.51484   0.39200   0.32544   -0.118547           
         H         H         0.53217   0.29705   0.39050   0.109926  
         H         H         0.46164   0.36965   0.39166   0.108155  
         N         N         0.66571   0.33660   0.24566   -0.129395           
         C         C         0.62298   0.25281   0.24601   0.175048  
         C         C         0.53900   0.08511   0.24705   0.044347  
         C         C         0.74971   0.37806   0.24902   0.170079  
         C         C         0.91741   0.45950   0.25537   0.043382  
         C         C         0.62554   0.37937   0.24767   0.171293  
         C         C         0.54445   0.46432   0.25083   0.038252  
         H         H         0.16119   0.47354   0.31252   0.110753  
         H         H         0.53193   0.69433   0.27413   0.108862  
         H         H         0.31834   0.84084   0.33509   0.111040  
         H         H         0.52098   0.84170   0.16648   0.111842  
         H         H         0.31320   0.47444   0.23453   0.108989  
         H         H         0.16234   0.68639   0.21546   0.109964  
         C         C         0.00434   0.50200   0.25863   0.079194  
         C         C         0.50164   0.50739   0.25133   0.077309  
         C         C         0.49628   -0.00164  0.24832   0.074740  
         H         H         0.01440   0.40032   0.30683   0.103688  
         H         H         0.01556   0.61400   0.20902   0.103078  
         H         H         0.60604   0.62299   0.27491   0.102350  
         H         H         0.38645   0.40238   0.22715   0.101671  
         H         H         0.38970   0.98746   0.33477   0.104392  
         H         H         0.59228   0.98807   0.16059   0.104116  
         C         C         0.25642   0.62407   0.75099   0.379083  
         C         C         0.37296   0.62633   0.74556   0.377524  
         C         C         0.37169   0.74098   0.74159   0.376948  
         N         N         0.29403   0.58318   0.75322   -0.413992           
         N         N         0.41443   0.70531   0.73620   -0.412889           
         N         N         0.29276   0.70320   0.74880   -0.413385           
         C         C         0.16955   0.57940   0.74923   -0.005165           
         C         C         0.41662   0.58403   0.74889   -0.005453           
         C         C         0.41414   0.82780   0.74048   -0.003471           
         C         C         0.12806   0.49818   0.77339   -0.093540           
         C         C         0.49824   0.62391   0.73170   -0.092711           
         C         C         0.37814   0.86899   0.79515   -0.096182           
         C         C         0.49050   0.87030   0.68568   -0.096702           
         C         C         0.37719   0.50281   0.77191   -0.092755           
         C         C         0.12693   0.61772   0.72060   -0.093300           
         C         C         0.04510   0.57610   0.71724   -0.143253           
         C         C         0.41801   0.46261   0.77627   -0.140451           
         C         C         0.52984   0.95215   0.68655   -0.143244           
         C         C         0.41760   0.95081   0.79524   -0.144392           
         C         C         0.53887   0.58348   0.73587   -0.140215           
         C         C         0.04613   0.45681   0.77134   -0.144273           
         C         C         0.54766   0.20380   0.66169   -0.174759           
         C         C         0.50582   0.12185   0.66214   -0.124123           
         H         H         0.52311   0.23400   0.59456   0.112024  
         H         H         0.44938   0.08903   0.59234   0.108285  
         C         C         0.78728   0.33716   0.67260   -0.183510           
         C         C         0.86908   0.37607   0.67322   -0.118563           
         H         H         0.75224   0.27863   0.61481   0.111859  
         H         H         0.89668   0.34790   0.61173   0.106164  
         C         C         0.65240   0.44515   0.67229   -0.177960           
         C         C         0.61220   0.48598   0.67579   -0.116064           
         H         H         0.70484   0.46736   0.60448   0.109249  
         H         H         0.63310   0.53813   0.60526   0.104838  
         C         C         0.79613   0.44789   0.82120   -0.179301           
         C         C         0.87784   0.48713   0.81841   -0.121405           
         H         H         0.76853   0.47586   0.88275   0.112780  
         H         H         0.91301   0.54489   0.88046   0.108064  
         C         C         0.65222   0.20703   0.83019   -0.177218           
         C         C         0.61127   0.12523   0.82676   -0.123483           
         H         H         0.70918   0.23995   0.89667   0.109477  
         H         H         0.63618   0.09527   0.89424   0.109798  
         C         C         0.55595   0.34682   0.83525   -0.178769           
         C         C         0.51619   0.38814   0.83901   -0.116519           
         H         H         0.53409   0.29290   0.89952   0.108531  
         H         H         0.46529   0.36674   0.91206   0.104808  
         N         N         0.66531   0.33177   0.74709   -0.130095           
         C         C         0.62165   0.24794   0.74676   0.171295  
         C         C         0.53697   0.08077   0.74320   0.048397  
         C         C         0.74893   0.37216   0.74662   0.175250  
         C         C         0.91646   0.45231   0.74520   0.041036  
         C         C         0.62498   0.37435   0.75154   0.171585  
         C         C         0.54275   0.45871   0.75841   0.037194  
         H         H         0.16140   0.46884   0.79523   0.109150  
         H         H         0.52851   0.68691   0.71552   0.109184  
         H         H         0.31956   0.83553   0.83989   0.111028  
         H         H         0.51771   0.83822   0.64068   0.111477  
         H         H         0.31402   0.47244   0.78484   0.107545  
         H         H         0.15955   0.68029   0.69972   0.110494  
         C         C         0.00306   0.49501   0.74424   0.078506  
         C         C         0.49980   0.50178   0.75747   0.076122  
         C         C         0.49416   0.99381   0.74118   0.074844  
         H         H         0.01461   0.39442   0.79501   0.102813  
         H         H         0.01264   0.60601   0.69077   0.102036  
         H         H         0.60224   0.61586   0.72443   0.101401  
         H         H         0.38600   0.39949   0.79153   0.101472  
         H         H         0.38984   0.98220   0.84129   0.106592  
         H         H         0.58835   0.98472   0.64085   0.105271 

