
##########################################################################
#               Crystallographic Information Format file
#               Produced by PyCifRW module
#
#  This is a CIF file.  CIF has been adopted by the International
#  Union of Crystallography as the standard for data archiving and
#  transmission.
#
#  For information on this file format, follow the CIF links at
#  http://www.iucr.org
##########################################################################

data_image0

_cell_length_a                          35.1279
_cell_length_b                          35.0319
_cell_length_c                          8.10377
_cell_angle_alpha                       84.6914
_cell_angle_beta                        83.6453
_cell_angle_gamma                       122.01
_symmetry_space_group_name_H-M          'P 1'
_space_group_name_Hall                  'P 1'
loop_
  _atom_site_type_symbol
  _atom_site_label
  _atom_site_fract_x
  _atom_site_fract_y
  _atom_site_fract_z
  _atom_site_charge
         C         C         0.71010   0.35813   0.27838   0.077673  
         C         C         0.64152   0.35892   0.25781   0.076033  
         C         C         0.64212   0.29069   0.21831   0.078116  
         C         C         0.68733   0.31334   0.24487   -0.184940           
         C         C         0.68667   0.38045   0.28505   -0.183789           
         C         C         0.61983   0.31418   0.22404   -0.184714           
         H         H         0.70513   0.29569   0.24056   0.098217  
         H         H         0.70306   0.41428   0.31907   0.104035  
         H         H         0.58559   0.29795   0.19576   0.104216  
         C         C         0.75786   0.38098   0.30472   0.064858  
         C         C         0.61751   0.38313   0.26271   0.065324  
         C         C         0.61831   0.24305   0.18749   0.064444  
         C         C         0.28743   0.63848   0.27256   0.173209  
         C         C         0.35905   0.64049   0.24525   0.174223  
         C         C         0.36128   0.71218   0.22498   0.169635  
         C         C         0.77324   0.35638   0.38983   -0.132551           
         C         C         0.34636   0.73710   0.13940   -0.174553           
         C         C         0.64045   0.42990   0.19409   -0.130444           
         C         C         0.26277   0.59635   0.21815   -0.183594           
         C         C         0.57124   0.21220   0.25083   -0.129178           
         C         C         0.40135   0.65968   0.13737   -0.178847           
         C         C         0.64161   0.22645   0.09870   -0.130592           
         C         C         0.26294   0.65551   0.34926   -0.178353           
         C         C         0.57090   0.36047   0.33434   -0.131862           
         C         C         0.40189   0.73651   0.28719   -0.177775           
         C         C         0.78985   0.42780   0.24176   -0.127605           
         C         C         0.34023   0.59771   0.34791   -0.179250           
         C         C         0.81876   0.37709   0.40719   -0.131753           
         C         C         0.37042   0.78448   0.12204   -0.122926           
         C         C         0.61784   0.45264   0.19489   -0.129415           
         C         C         0.21539   0.57238   0.23862   -0.121401           
         C         C         0.54875   0.16674   0.22885   -0.138203           
         C         C         0.42416   0.63718   0.13425   -0.122106           
         C         C         0.61922   0.18092   0.07772   -0.132774           
         C         C         0.21573   0.63208   0.36425   -0.123915           
         C         C         0.54827   0.38324   0.33422   -0.130739           
         C         C         0.42678   0.78406   0.26432   -0.123744           
         C         C         0.83529   0.44863   0.26009   -0.136522           
         C         C         0.36278   0.57498   0.34237   -0.123290           
         C         C         0.85092   0.42368   0.34073   0.062488  
         C         C         0.57088   0.42988   0.26261   0.061206  
         C         C         0.57240   0.14989   0.14476   0.064078  
         C         C         0.19091   0.59002   0.30955   0.044194  
         C         C         0.40551   0.59440   0.23691   0.044892  
         C         C         0.41121   0.80901   0.18356   0.044599  
         H         H         0.74863   0.32070   0.44718   0.097238  
         H         H         0.31576   0.71903   0.08600   0.107944  
         H         H         0.67640   0.44845   0.13565   0.101758  
         H         H         0.28104   0.58266   0.15834   0.109599  
         H         H         0.55273   0.22365   0.32541   0.103810  
         H         H         0.41610   0.69244   0.05556   0.109563  
         H         H         0.67769   0.24976   0.04350   0.097287  
         H         H         0.28126   0.68713   0.39810   0.112213  
         H         H         0.55231   0.32453   0.39252   0.103763  
         H         H         0.41339   0.71763   0.35590   0.108591  
         H         H         0.77929   0.44764   0.17223   0.103075  
         H         H         0.30769   0.58231   0.43285   0.110696  
         H         H         0.82939   0.35727   0.47627   0.103475  
         H         H         0.35849   0.80310   0.05345   0.104506  
         H         H         0.63719   0.48889   0.14128   0.099153  
         H         H         0.19701   0.54035   0.19186   0.105262  
         H         H         0.51270   0.14317   0.28422   0.101648  
         H         H         0.45636   0.65223   0.04652   0.105415  
         H         H         0.63774   0.16904   0.00577   0.102664  
         H         H         0.19746   0.64556   0.42659   0.106772  
         H         H         0.51208   0.36408   0.38931   0.099324  
         H         H         0.45736   0.80214   0.31866   0.107787  
         H         H         0.85981   0.48450   0.20513   0.100917  
         H         H         0.34786   0.54233   0.42594   0.106746  
         C         C         0.43010   0.57102   0.23623   0.066664  
         C         C         0.47739   0.52573   0.24170   0.061979  
         C         C         0.54681   0.45404   0.25714   0.055451  
         C         C         0.50137   0.50165   0.24649   0.058233  
         C         C         0.43589   0.85914   0.16793   0.066660  
         C         C         0.48189   0.95549   0.14340   0.061058  
         C         C         0.54951   0.10088   0.13487   0.062031  
         C         C         0.50542   0.00534   0.13555   0.062212  
         C         C         0.14090   0.56520   0.32496   0.064224  
         C         C         0.04463   0.51714   0.34977   0.061214  
         C         C         0.89969   0.44620   0.35221   0.062561  
         C         C         0.99479   0.49227   0.35715   0.062820  
         C         C         0.47723   0.59528   0.23719   -0.135791           
         C         C         0.50043   0.57310   0.23985   -0.131878           
         H         H         0.49529   0.63170   0.24112   0.100835  
         H         H         0.53662   0.59233   0.24573   0.101432  
         C         C         0.50352   0.43583   0.35767   -0.130367           
         C         C         0.48126   0.45890   0.35139   -0.136324           
         H         H         0.48723   0.40354   0.44483   0.103808  
         H         H         0.44850   0.44467   0.43432   0.104189  
         C         C         0.41221   0.87935   0.22023   -0.138157           
         C         C         0.43482   0.92650   0.20954   -0.130838           
         H         H         0.37600   0.85733   0.27545   0.101937  
         H         H         0.41629   0.94131   0.25745   0.103177  
         C         C         0.57191   0.07814   0.16384   -0.130617           
         C         C         0.55028   0.03138   0.16525   -0.134070           
         H         H         0.60600   0.09730   0.19333   0.102444  
         H         H         0.56768   0.01431   0.19545   0.103725  
         C         C         0.11260   0.51853   0.39710   -0.136909           
         C         C         0.06537   0.49500   0.40974   -0.135151           
         H         H         0.12805   0.50113   0.44727   0.102509  
         H         H         0.04402   0.45918   0.47008   0.102369  
         C         C         0.92395   0.49010   0.39382   -0.137076           
         C         C         0.97041   0.51260   0.39738   -0.131922           
         H         H         0.90569   0.50627   0.42744   0.101642  
         H         H         0.98816   0.54603   0.43465   0.104614  
         C         C         0.40708   0.52370   0.23758   -0.136048           
         C         C         0.43026   0.50155   0.24057   -0.130948           
         H         H         0.37087   0.50455   0.23187   0.102790  
         H         H         0.41198   0.46506   0.23823   0.100693  
         C         C         0.56626   0.49640   0.14931   -0.131329           
         C         C         0.54444   0.51993   0.14529   -0.133810           
         H         H         0.59833   0.51058   0.06211   0.101291  
         H         H         0.56018   0.55218   0.05818   0.104846  
         C         C         0.12020   0.58747   0.26632   -0.139312           
         C         C         0.07304   0.56384   0.27751   -0.131717           
         H         H         0.14176   0.62328   0.20578   0.102170  
         H         H         0.05787   0.58120   0.22445   0.104044  
         C         C         0.92379   0.42529   0.31708   -0.130993           
         C         C         0.97041   0.44798   0.31923   -0.137666           
         H         H         0.90607   0.39173   0.28088   0.103004  
         H         H         0.98888   0.43203   0.28495   0.102376  
         C         C         0.48301   0.88794   0.10260   -0.134209           
         C         C         0.50549   0.93525   0.08969   -0.132785           
         H         H         0.50173   0.87302   0.05747   0.102903  
         H         H         0.54175   0.95709   0.03474   0.099195  
         C         C         0.50479   0.07494   0.10330   -0.135887           
         C         C         0.48338   0.02825   0.10230   -0.131036           
         H         H         0.48696   0.09178   0.07659   0.102481  
         H         H         0.44927   0.00905   0.07269   0.102009  
         N         N         0.33581   0.66356   0.24964   -0.129621           
         C         C         0.70946   0.35784   0.78423   0.079722  
         C         C         0.64179   0.36029   0.76300   0.077032  
         C         C         0.64043   0.29101   0.72747   0.079720  
         C         C         0.68568   0.31283   0.75349   -0.185718           
         C         C         0.68697   0.38113   0.78869   -0.185219           
         C         C         0.61901   0.31523   0.73243   -0.185865           
         H         H         0.70251   0.29423   0.74919   0.098526  
         H         H         0.70432   0.41529   0.81981   0.102616  
         H         H         0.58471   0.29945   0.70494   0.102702  
         C         C         0.75739   0.38072   0.80833   0.064231  
         C         C         0.61829   0.38490   0.76654   0.065141  
         C         C         0.61602   0.24345   0.69676   0.064053  
         C         C         0.28693   0.63981   0.77831   0.168915  
         C         C         0.35782   0.64019   0.75077   0.175955  
         C         C         0.36138   0.71281   0.72916   0.172911  
         C         C         0.77401   0.35700   0.89088   -0.131390           
         C         C         0.34496   0.73740   0.65178   -0.177542           
         C         C         0.64150   0.43198   0.70252   -0.130598           
         C         C         0.26251   0.59970   0.71172   -0.176328           
         C         C         0.56901   0.21259   0.76095   -0.129000           
         C         C         0.40150   0.66004   0.65182   -0.183849           
         C         C         0.63934   0.22717   0.60640   -0.131030           
         C         C         0.26224   0.65560   0.86301   -0.172651           
         C         C         0.57122   0.36159   0.83145   -0.130889           
         C         C         0.40398   0.73789   0.77814   -0.182108           
         C         C         0.78856   0.42759   0.74355   -0.127985           
         C         C         0.33698   0.59578   0.84374   -0.180416           
         C         C         0.81981   0.37899   0.90581   -0.131258           
         C         C         0.36867   0.78479   0.63447   -0.122631           
         C         C         0.61864   0.45452   0.70221   -0.129960           
         C         C         0.21517   0.57575   0.73120   -0.122334           
         C         C         0.54668   0.16696   0.74089   -0.139044           
         C         C         0.42372   0.63694   0.64915   -0.119412           
         C         C         0.61725   0.18150   0.58822   -0.132508           
         C         C         0.21511   0.63270   0.87548   -0.125701           
         C         C         0.54835   0.38401   0.82958   -0.130217           
         C         C         0.42822   0.78534   0.75559   -0.121684           
         C         C         0.83421   0.44964   0.75942   -0.139564           
         C         C         0.35907   0.57254   0.83773   -0.120891           
         C         C         0.85097   0.42572   0.83891   0.062865  
         C         C         0.57129   0.43106   0.76459   0.060396  
         C         C         0.57067   0.15031   0.65789   0.064169  
         C         C         0.19050   0.59199   0.81207   0.046744  
         C         C         0.40319   0.59267   0.74220   0.045615  
         C         C         0.41073   0.80993   0.68738   0.044778  
         H         H         0.75049   0.32110   0.94774   0.097907  
         H         H         0.31332   0.71894   0.60471   0.111236  
         H         H         0.67785   0.45096   0.64946   0.102003  
         H         H         0.28116   0.58780   0.64187   0.106852  
         H         H         0.55035   0.22423   0.83355   0.102630  
         H         H         0.41819   0.69399   0.57666   0.111411  
         H         H         0.67512   0.25093   0.54794   0.097671  
         H         H         0.28006   0.68614   0.91830   0.110182  
         H         H         0.55245   0.32533   0.88497   0.102997  
         H         H         0.41803   0.71999   0.83524   0.112111  
         H         H         0.77697   0.44637   0.67403   0.102465  
         H         H         0.30312   0.57938   0.92052   0.112571  
         H         H         0.83170   0.36021   0.97358   0.103262  
         H         H         0.35517   0.80282   0.57287   0.105094  
         H         H         0.63805   0.49104   0.65218   0.099134  
         H         H         0.19732   0.54545   0.67397   0.105775  
         H         H         0.51067   0.14326   0.79691   0.102916  
         H         H         0.45709   0.65290   0.56840   0.104892  
         H         H         0.63574   0.16959   0.51643   0.104163  
         H         H         0.19664   0.64550   0.94149   0.105564  
         H         H         0.51173   0.36440   0.87749   0.099979  
         H         H         0.46060   0.80380   0.79859   0.104334  
         H         H         0.85785   0.48559   0.70369   0.102457  
         H         H         0.34254   0.53868   0.91428   0.103730  
         C         C         0.42712   0.56859   0.74098   0.064422  
         C         C         0.47292   0.52183   0.74544   0.063138  
         C         C         0.54625   0.45421   0.76115   0.057778  
         C         C         0.49748   0.49834   0.74983   0.057339  
         C         C         0.43541   0.85991   0.67550   0.065051  
         C         C         0.48343   0.95632   0.65677   0.062647  
         C         C         0.54872   0.10126   0.64964   0.062769  
         C         C         0.50724   0.00623   0.64838   0.059631  
         C         C         0.14052   0.56732   0.82758   0.067344  
         C         C         0.04435   0.51929   0.84951   0.061772  
         C         C         0.89989   0.44894   0.84733   0.063790  
         C         C         0.99475   0.49465   0.85339   0.061496  
         C         C         0.47377   0.59169   0.74987   -0.135394           
         C         C         0.49622   0.56880   0.75130   -0.131057           
         H         H         0.49215   0.62767   0.76055   0.102360  
         H         H         0.53203   0.58684   0.76275   0.101613  
         C         C         0.50313   0.43508   0.86455   -0.132372           
         C         C         0.47905   0.45630   0.85716   -0.136270           
         H         H         0.48866   0.40374   0.95559   0.103234  
         H         H         0.44630   0.44125   0.94122   0.104651  
         C         C         0.41205   0.88116   0.71785   -0.136403           
         C         C         0.43564   0.92832   0.70970   -0.129252           
         H         H         0.37520   0.86020   0.76261   0.100286  
         H         H         0.41726   0.94400   0.74952   0.101525  
         C         C         0.57032   0.07878   0.69560   -0.132490           
         C         C         0.55001   0.03216   0.69562   -0.136314           
         H         H         0.60259   0.09813   0.73857   0.103087  
         H         H         0.56662   0.01529   0.73878   0.102872  
         C         C         0.11247   0.51986   0.88628   -0.135681           
         C         C         0.06526   0.49636   0.89851   -0.132230           
         H         H         0.12808   0.50177   0.92736   0.102245  
         H         H         0.04407   0.45986   0.94928   0.103130  
         C         C         0.92410   0.49294   0.88794   -0.137070           
         C         C         0.97046   0.51515   0.89283   -0.131795           
         H         H         0.90595   0.50938   0.91916   0.102609  
         H         H         0.98822   0.54861   0.92977   0.102159  
         C         C         0.40397   0.52174   0.73296   -0.135703           
         C         C         0.42630   0.49867   0.73617   -0.134383           
         H         H         0.36833   0.50378   0.71953   0.099792  
         H         H         0.40774   0.46255   0.72712   0.103045  
         C         C         0.56430   0.49615   0.65284   -0.134059           
         C         C         0.54083   0.51801   0.64869   -0.131161           
         H         H         0.59666   0.51128   0.56643   0.103615  
         H         H         0.55534   0.54998   0.56116   0.102746  
         C         C         0.11958   0.59046   0.78217   -0.139448           
         C         C         0.07250   0.56683   0.79170   -0.129083           
         H         H         0.14080   0.62710   0.73393   0.102076  
         H         H         0.05712   0.58500   0.74894   0.101431  
         C         C         0.92399   0.42812   0.81034   -0.132473           
         C         C         0.97055   0.45066   0.81259   -0.134658           
         H         H         0.90635   0.39487   0.77172   0.104786  
         H         H         0.98899   0.43483   0.77606   0.101668  
         C         C         0.48323   0.88777   0.62479   -0.135778           
         C         C         0.50674   0.93503   0.61442   -0.131434           
         H         H         0.50177   0.87187   0.59016   0.100355  
         H         H         0.54354   0.95595   0.56909   0.101857  
         C         C         0.50629   0.07554   0.60020   -0.137091           
         C         C         0.48634   0.02910   0.59749   -0.131728           
         H         H         0.48948   0.09244   0.55991   0.101654  
         H         H         0.45447   0.01008   0.55150   0.102162  
         N         N         0.33547   0.66417   0.75696   -0.127385 

