
##########################################################################
#               Crystallographic Information Format file
#               Produced by PyCifRW module
#
#  This is a CIF file.  CIF has been adopted by the International
#  Union of Crystallography as the standard for data archiving and
#  transmission.
#
#  For information on this file format, follow the CIF links at
#  http://www.iucr.org
##########################################################################

data_image0

_cell_length_a                          52.2462
_cell_length_b                          52.1182
_cell_length_c                          7.90315
_cell_angle_alpha                       106.008
_cell_angle_beta                        96.1754
_cell_angle_gamma                       119.911
_symmetry_space_group_name_H-M          'P 1'
_space_group_name_Hall                  'P 1'
loop_
  _atom_site_type_symbol
  _atom_site_label
  _atom_site_fract_x
  _atom_site_fract_y
  _atom_site_fract_z
  _atom_site_charge
         C         C         0.53024   0.50317   0.73761   0.029972  
         C         C         0.52908   0.52847   0.70883   0.028062  
         C         C         0.55546   0.55438   0.69328   -0.224386           
         C         C         0.58202   0.55465   0.71075   0.174409  
         C         C         0.58338   0.53007   0.74124   0.168306  
         C         C         0.55818   0.50434   0.75469   -0.230953           
         O         O         0.61227   0.53560   0.74262   -0.338761           
         B         B         0.62841   0.56424   0.71275   0.587232  
         O         O         0.60998   0.57633   0.69295   -0.340517           
         C         C         0.50213   0.47520   0.73528   0.030193  
         C         C         0.47302   0.47105   0.67468   0.029694  
         C         C         0.50335   0.45135   0.78221   -0.224967           
         C         C         0.47596   0.42372   0.75725   0.178747  
         C         C         0.44742   0.41862   0.68376   0.173021  
         C         C         0.44527   0.44158   0.64296   -0.230807           
         O         O         0.42384   0.38865   0.66762   -0.340681           
         B         B         0.43870   0.37562   0.73422   0.583049  
         O         O         0.47100   0.39710   0.79120   -0.341703           
         C         C         0.50042   0.52726   0.69084   0.029082  
         C         C         0.47216   0.49783   0.65787   0.031497  
         C         C         0.44380   0.49574   0.62273   -0.226885           
         C         C         0.44481   0.52296   0.63180   0.171829  
         C         C         0.47282   0.55241   0.68011   0.172693  
         C         C         0.50064   0.55516   0.70695   -0.227790           
         O         O         0.46712   0.57614   0.69704   -0.339783           
         B         B         0.43483   0.56023   0.65404   0.594885  
         O         O         0.42064   0.52720   0.60994   -0.341990           
         H         H         0.55447   0.57269   0.65883   0.136311  
         H         H         0.55970   0.48515   0.77190   0.137238  
         H         H         0.52519   0.45483   0.83941   0.135899  
         H         H         0.42273   0.43690   0.58906   0.138185  
         H         H         0.42182   0.47377   0.59553   0.135470  
         H         H         0.52205   0.57826   0.74418   0.138090  
         C         C         0.13986   0.83332   0.71769   0.027527  
         C         C         0.13882   0.80464   0.69687   0.031870  
         C         C         0.11207   0.77778   0.70263   -0.227996           
         C         C         0.08806   0.78055   0.73430   0.178355  
         C         C         0.08957   0.80905   0.76256   0.173514  
         C         C         0.11468   0.83530   0.75298   -0.227450           
         O         O         0.06219   0.80493   0.79003   -0.344008           
         B         B         0.04350   0.77271   0.76943   0.590926  
         O         O         0.05953   0.75760   0.73946   -0.340250           
         C         C         0.16650   0.86015   0.69907   0.032424  
         C         C         0.19061   0.85695   0.64989   0.027777  
         C         C         0.16862   0.88938   0.72831   -0.229795           
         C         C         0.19385   0.91368   0.70508   0.172280  
         C         C         0.21666   0.90993   0.64837   0.176191  
         C         C         0.21559   0.88219   0.62004   -0.221931           
         O         O         0.23893   0.93782   0.63337   -0.337917           
         B         B         0.22935   0.95893   0.68562   0.585504  
         O         O         0.20135   0.94423   0.72936   -0.340179           
         C         C         0.16526   0.80306   0.66981   0.029152  
         C         C         0.19054   0.82863   0.64204   0.030745  
         C         C         0.21640   0.82725   0.61670   -0.231828           
         C         C         0.21657   0.80134   0.62413   0.174340  
         C         C         0.19216   0.77664   0.65585   0.171421  
         C         C         0.16648   0.77675   0.67773   -0.233026           
         O         O         0.19924   0.75469   0.66657   -0.340260           
         B         B         0.22862   0.76675   0.63956   0.588371  
         O         O         0.23952   0.79542   0.61078   -0.337183           
         H         H         0.11000   0.75525   0.67991   0.138637  
         H         H         0.11468   0.85666   0.77009   0.136563  
         H         H         0.15124   0.89305   0.77077   0.135152  
         H         H         0.23368   0.88020   0.57591   0.135621  
         H         H         0.23602   0.84622   0.59537   0.135505  
         H         H         0.14839   0.75768   0.70751   0.135436  
         C         C         0.84934   0.67250   0.67922   0.019609  
         C         C         0.84815   0.71668   0.64419   -0.068946           
         C         C         0.84956   0.62775   0.71439   -0.077809           
         C         C         0.86401   0.70196   0.65562   -0.057576           
         C         C         0.89594   0.71681   0.64114   0.432098  
         C         C         0.86492   0.65727   0.69713   -0.072134           
         C         C         0.89768   0.67268   0.69955   0.425810  
         C         C         0.94503   0.72037   0.70633   0.180819  
         C         C         0.96384   0.75223   0.83182   -0.154534           
         C         C         0.99554   0.76939   0.85504   -0.046246           
         C         C         0.95780   0.70536   0.60922   -0.154316           
         C         C         0.98966   0.72246   0.63854   -0.039479           
         C         C         0.00906   0.75478   0.75974   -0.234520           
         O         O         0.90799   0.73980   0.59436   -0.422578           
         O         O         0.91168   0.65988   0.71571   -0.409800           
         N         N         0.91209   0.70292   0.68333   -0.202176           
         H         H         0.85964   0.73904   0.62239   0.132718  
         H         H         0.95360   0.76322   0.91053   0.130879  
         H         H         0.01002   0.79425   0.95129   0.112773  
         H         H         0.86234   0.61689   0.73191   0.137679  
         H         H         0.94317   0.68083   0.51062   0.134032  
         H         H         -0.00048  0.71067   0.56230   0.111301  
         C         C         0.81823   0.65780   0.68478   0.017267  
         C         C         0.81814   0.61217   0.70566   -0.073835           
         C         C         0.81822   0.70332   0.66454   -0.070735           
         C         C         0.80252   0.62698   0.69025   -0.068604           
         C         C         0.76881   0.60947   0.66326   0.427198  
         C         C         0.80324   0.67405   0.68476   -0.072938           
         C         C         0.77325   0.66141   0.72673   0.425352  
         C         C         0.72442   0.61306   0.70972   0.183029  
         C         C         0.71186   0.58693   0.76441   -0.172517           
         C         C         0.68090   0.57075   0.75943   -0.031831           
         C         C         0.70581   0.62328   0.65506   -0.159920           
         C         C         0.67522   0.60762   0.65797   -0.044202           
         C         C         0.66197   0.58083   0.70706   -0.240031           
         O         O         0.75296   0.58016   0.60915   -0.395841           
         O         O         0.76408   0.67879   0.78291   -0.401189           
         N         N         0.75602   0.62835   0.70217   -0.213897           
         H         H         0.80554   0.58848   0.71097   0.131278  
         H         H         0.72577   0.57883   0.81012   0.127246  
         H         H         0.67165   0.55053   0.80244   0.114022  
         H         H         0.80632   0.71550   0.66368   0.137076  
         H         H         0.71481   0.64289   0.60799   0.132013  
         H         H         0.66113   0.61590   0.61561   0.110069  
         C         C         0.32670   0.67427   0.66306   0.020936  
         C         C         0.27808   0.62513   0.61077   -0.072128           
         C         C         0.37528   0.72330   0.71385   -0.073977           
         C         C         0.29419   0.65658   0.62168   -0.070693           
         C         C         0.27776   0.67115   0.57450   0.428751  
         C         C         0.34372   0.70715   0.69306   -0.070395           
         C         C         0.32812   0.72457   0.71876   0.425088  
         C         C         0.27881   0.72087   0.64307   0.180837  
         C         C         0.25032   0.70787   0.68071   -0.157317           
         C         C         0.23420   0.72244   0.67651   -0.039728           
         C         C         0.29132   0.74873   0.60536   -0.160579           
         C         C         0.27536   0.76365   0.60775   -0.033530           
         C         C         0.24644   0.75069   0.64151   -0.241749           
         O         O         0.25074   0.65481   0.47906   -0.407181           
         O         O         0.34273   0.75376   0.79887   -0.401727           
         N         N         0.29527   0.70536   0.64603   -0.212327           
         H         H         0.25304   0.61191   0.57899   0.134713  
         H         H         0.24092   0.68676   0.71481   0.128757  
         H         H         0.21211   0.71215   0.70605   0.110669  
         H         H         0.38800   0.74863   0.73686   0.133967  
         H         H         0.31307   0.75864   0.57271   0.130708  
         H         H         0.28523   0.78533   0.57854   0.111654  
         C         C         0.34244   0.65880   0.67451   0.019598  
         C         C         0.39025   0.70699   0.70496   -0.072371           
         C         C         0.29411   0.61097   0.64225   -0.071127           
         C         C         0.37430   0.67528   0.69021   -0.070691           
         C         C         0.39039   0.65846   0.68426   0.426738  
         C         C         0.32588   0.62724   0.66971   -0.063387           
         C         C         0.34254   0.61190   0.69773   0.432270  
         C         C         0.38850   0.61028   0.68264   0.181849  
         C         C         0.41704   0.62460   0.80993   -0.153934           
         C         C         0.43179   0.60835   0.79694   -0.040032           
         C         C         0.37431   0.57978   0.54542   -0.154151           
         C         C         0.38874   0.56325   0.53875   -0.043745           
         C         C         0.41788   0.57742   0.66226   -0.237594           
         O         O         0.41698   0.67068   0.67477   -0.411327           
         O         O         0.33036   0.58706   0.72694   -0.420755           
         N         N         0.37344   0.62743   0.68911   -0.203502           
         H         H         0.41464   0.71893   0.71331   0.132995  
         H         H         0.42739   0.64795   0.91844   0.133743  
         H         H         0.45415   0.61962   0.89543   0.109921  
         H         H         0.28195   0.58683   0.64126   0.133638  
         H         H         0.35253   0.56948   0.44430   0.131017  
         H         H         0.37761   0.53943   0.43267   0.109139  
         C         C         0.32622   0.15310   0.73229   0.014622  
         C         C         0.37351   0.15459   0.74561   -0.059540           
         C         C         0.27931   0.15241   0.72452   -0.073588           
         C         C         0.34311   0.13926   0.75238   -0.065065           
         C         C         0.32889   0.10933   0.78776   0.431537  
         C         C         0.29503   0.13747   0.73190   -0.071636           
         C         C         0.27825   0.10452   0.72910   0.422014  
         C         C         0.28047   0.05888   0.74558   0.182254  
         C         C         0.29000   0.03906   0.66008   -0.158516           
         C         C         0.27387   0.00716   0.64218   -0.043506           
         C         C         0.25493   0.04646   0.81249   -0.169069           
         C         C         0.23855   0.01429   0.78874   -0.029455           
         C         C         0.24749   0.99392   0.70261   -0.240156           
         O         O         0.34442   0.10015   0.84336   -0.409867           
         O         O         0.25016   0.08925   0.70293   -0.404129           
         N         N         0.29608   0.09151   0.75476   -0.210686           
         H         H         0.38624   0.14364   0.76151   0.134111  
         H         H         0.30952   0.04828   0.60549   0.130741  
         H         H         0.28157   0.99212   0.57571   0.110141  
         H         H         0.25534   0.13981   0.72508   0.135945  
         H         H         0.24747   0.06139   0.88162   0.127519  
         H         H         0.21886   0.00514   0.84252   0.112379  
         C         C         0.34081   0.18332   0.71487   0.016354  
         C         C         0.29418   0.18294   0.71699   -0.074538           
         C         C         0.38726   0.18342   0.71628   -0.060905           
         C         C         0.32448   0.19815   0.70900   -0.072814           
         C         C         0.33957   0.23033   0.70099   0.423870  
         C         C         0.37129   0.19794   0.70221   -0.060829           
         C         C         0.38594   0.22831   0.67154   0.432036  
         C         C         0.38748   0.27745   0.70302   0.183530  
         C         C         0.37306   0.28852   0.61277   -0.170715           
         C         C         0.38977   0.32034   0.62942   -0.030195           
         C         C         0.41855   0.29835   0.80982   -0.155138           
         C         C         0.43516   0.32988   0.82151   -0.048624           
         C         C         0.42107   0.34157   0.73274   -0.234451           
         O         O         0.32582   0.24381   0.70264   -0.408273           
         O         O         0.40997   0.23888   0.62791   -0.411778           
         N         N         0.37060   0.24483   0.69374   -0.209385           
         H         H         0.28238   0.19521   0.71578   0.137080  
         H         H         0.34910   0.27278   0.53045   0.129787  
         H         H         0.37840   0.32857   0.55660   0.113165  
         H         H         0.41070   0.19510   0.70568   0.133785  
         H         H         0.42948   0.29005   0.88468   0.130700  
         H         H         0.45930   0.34580   0.90396   0.111170  
         C         C         0.52971   0.50386   0.23528   0.030003  
         C         C         0.52840   0.52911   0.20665   0.028434  
         C         C         0.55472   0.55509   0.19107   -0.225835           
         C         C         0.58131   0.55540   0.20723   0.176015  
         C         C         0.58288   0.53100   0.23886   0.168734  
         C         C         0.55777   0.50525   0.25285   -0.230141           
         O         O         0.61188   0.53675   0.24113   -0.338284           
         B         B         0.62777   0.56522   0.20907   0.585925  
         O         O         0.60918   0.57709   0.18863   -0.341355           
         C         C         0.50171   0.47584   0.23375   0.028297  
         C         C         0.47256   0.47168   0.17460   0.030405  
         C         C         0.50303   0.45201   0.28049   -0.223283           
         C         C         0.47567   0.42438   0.25626   0.176889  
         C         C         0.44709   0.41924   0.18334   0.171783  
         C         C         0.44486   0.44220   0.14325   -0.227985           
         O         O         0.42355   0.38927   0.16737   -0.341292           
         B         B         0.43847   0.37621   0.23323   0.583258  
         O         O         0.47076   0.39780   0.29055   -0.340529           
         C         C         0.49968   0.52781   0.18931   0.032862  
         C         C         0.47154   0.49840   0.15841   0.030402  
         C         C         0.44313   0.49625   0.12588   -0.228651           
         C         C         0.44396   0.52340   0.13584   0.172816  
         C         C         0.47185   0.55281   0.18095   0.173331  
         C         C         0.49968   0.55556   0.20448   -0.230424           
         O         O         0.46604   0.57644   0.19736   -0.339132           
         B         B         0.43377   0.56050   0.15724   0.593276  
         O         O         0.41968   0.52756   0.11638   -0.342938           
         H         H         0.55373   0.57355   0.15859   0.135939  
         H         H         0.55948   0.48624   0.27149   0.136459  
         H         H         0.52491   0.45545   0.33628   0.136178  
         H         H         0.42230   0.43755   0.09013   0.137021  
         H         H         0.42123   0.47427   0.09997   0.136028  
         H         H         0.52093   0.57864   0.23850   0.138115  
         C         C         0.13918   0.83396   0.22031   0.029314  
         C         C         0.13803   0.80516   0.19626   0.027183  
         C         C         0.11110   0.77803   0.19825   -0.223382           
         C         C         0.08704   0.78069   0.22980   0.177650  
         C         C         0.08875   0.80938   0.26270   0.172404  
         C         C         0.11404   0.83591   0.25687   -0.228274           
         O         O         0.06142   0.80522   0.29117   -0.343053           
         B         B         0.04262   0.77285   0.26713   0.591822  
         O         O         0.05842   0.75758   0.23257   -0.340952           
         C         C         0.16582   0.86090   0.20282   0.031821  
         C         C         0.19003   0.85791   0.15350   0.029693  
         C         C         0.16765   0.88997   0.23215   -0.231871           
         C         C         0.19276   0.91444   0.20955   0.171329  
         C         C         0.21579   0.91102   0.15366   0.176766  
         C         C         0.21488   0.88331   0.12391   -0.220777           
         O         O         0.23785   0.93908   0.13932   -0.339597           
         B         B         0.22787   0.95987   0.19078   0.587479  
         O         O         0.19978   0.94480   0.23276   -0.340621           
         C         C         0.16452   0.80371   0.16928   0.029320  
         C         C         0.19001   0.82955   0.14453   0.029111  
         C         C         0.21602   0.82829   0.12144   -0.229316           
         C         C         0.21598   0.80213   0.12620   0.170988  
         C         C         0.19112   0.77697   0.15232   0.172646  
         C         C         0.16548   0.77714   0.17423   -0.229383           
         O         O         0.19784   0.75464   0.15952   -0.340371           
         B         B         0.22765   0.76713   0.13886   0.589377  
         O         O         0.23906   0.79633   0.11573   -0.338164           
         H         H         0.10893   0.75540   0.17315   0.137967  
         H         H         0.11412   0.85738   0.27685   0.136247  
         H         H         0.15009   0.89339   0.27350   0.136479  
         H         H         0.23288   0.88133   0.07812   0.135458  
         H         H         0.23592   0.84755   0.10380   0.135516  
         H         H         0.14724   0.75794   0.20242   0.134020  
         C         C         0.84889   0.67312   0.17904   0.021547  
         C         C         0.84788   0.71733   0.14282   -0.072204           
         C         C         0.84908   0.62860   0.21854   -0.079878           
         C         C         0.86363   0.70251   0.15454   -0.059109           
         C         C         0.89561   0.71722   0.14089   0.433357  
         C         C         0.86440   0.65789   0.19873   -0.072869           
         C         C         0.89713   0.67311   0.20133   0.426073  
         C         C         0.94448   0.72056   0.20769   0.182305  
         C         C         0.96334   0.75227   0.33489   -0.153789           
         C         C         0.99501   0.76942   0.35746   -0.044139           
         C         C         0.95709   0.70557   0.10870   -0.155754           
         C         C         0.98891   0.72265   0.13708   -0.038412           
         C         C         0.00834   0.75489   0.25934   -0.235688           
         O         O         0.90790   0.74018   0.09414   -0.423264           
         O         O         0.91108   0.66030   0.21852   -0.410917           
         N         N         0.91156   0.70323   0.18416   -0.204485           
         H         H         0.85945   0.73970   0.12106   0.135806  
         H         H         0.95313   0.76311   0.41507   0.130537  
         H         H         0.00959   0.79418   0.45502   0.109926  
         H         H         0.86194   0.61790   0.23816   0.137387  
         H         H         0.94236   0.68112   0.00906   0.133106  
         H         H         0.99874   0.71101   0.05926   0.111425  
         C         C         0.81783   0.65859   0.18511   0.019122  
         C         C         0.81769   0.61315   0.21015   -0.076294           
         C         C         0.81798   0.70410   0.16338   -0.072741           
         C         C         0.80212   0.62794   0.19283   -0.070049           
         C         C         0.76847   0.61055   0.16698   0.424068  
         C         C         0.80293   0.67490   0.18436   -0.075528           
         C         C         0.77299   0.66249   0.22671   0.428747  
         C         C         0.72401   0.61425   0.20951   0.183642  
         C         C         0.71125   0.58814   0.26428   -0.173956           
         C         C         0.68021   0.57197   0.25747   -0.028623           
         C         C         0.70553   0.62461   0.15448   -0.161564           
         C         C         0.67482   0.60892   0.15547   -0.044740           
         C         C         0.66134   0.58199   0.20347   -0.239742           
         O         O         0.75269   0.58127   0.11600   -0.395205           
         O         O         0.76394   0.68001   0.28204   -0.400567           
         N         N         0.75567   0.62946   0.20318   -0.212011           
         H         H         0.80512   0.58959   0.21711   0.135041  
         H         H         0.72503   0.58007   0.31227   0.126897  
         H         H         0.67082   0.55183   0.30116   0.112503  
         H         H         0.80616   0.71636   0.16256   0.140520  
         H         H         0.71483   0.64445   0.10931   0.132232  
         H         H         0.66092   0.61742   0.11321   0.110623  
         C         C         0.32521   0.67399   0.16072   0.018202  
         C         C         0.27682   0.62505   0.11411   -0.073622           
         C         C         0.37357   0.72289   0.20621   -0.073217           
         C         C         0.29275   0.65634   0.12224   -0.070173           
         C         C         0.27620   0.67088   0.07578   0.430035  
         C         C         0.34211   0.70678   0.18844   -0.068713           
         C         C         0.32657   0.72423   0.21660   0.426984  
         C         C         0.27737   0.72070   0.14280   0.183010  
         C         C         0.24891   0.70789   0.18078   -0.159200           
         C         C         0.23293   0.72263   0.17624   -0.037850           
         C         C         0.29002   0.74856   0.10506   -0.162540           
         C         C         0.27426   0.76368   0.10757   -0.030351           
         C         C         0.24532   0.75090   0.14117   -0.244973           
         O         O         0.24907   0.65454   0.98260   -0.405570           
         O         O         0.34124   0.75341   0.29822   -0.402768           
         N         N         0.29374   0.70508   0.14517   -0.213212           
         H         H         0.25180   0.61181   0.08413   0.138925  
         H         H         0.23941   0.68680   0.21504   0.130041  
         H         H         0.21084   0.71245   0.20578   0.109904  
         H         H         0.38618   0.74813   0.22718   0.133318  
         H         H         0.31176   0.75829   0.07209   0.130673  
         H         H         0.28432   0.78535   0.07831   0.110773  
         C         C         0.34106   0.65862   0.17214   0.021521  
         C         C         0.38859   0.70662   0.19694   -0.072824           
         C         C         0.29306   0.61112   0.14677   -0.070852           
         C         C         0.37281   0.67506   0.18482   -0.070324           
         C         C         0.38897   0.65833   0.17871   0.424548  
         C         C         0.32474   0.62729   0.17107   -0.062535           
         C         C         0.34162   0.61219   0.20013   0.427522  
         C         C         0.38745   0.61050   0.18116   0.183003  
         C         C         0.41637   0.62528   0.30555   -0.156617           
         C         C         0.43115   0.60908   0.29366   -0.038338           
         C         C         0.37296   0.57963   0.04754   -0.155278           
         C         C         0.38746   0.56320   0.04189   -0.043635           
         C         C         0.41689   0.57774   0.16326   -0.236493           
         O         O         0.41543   0.67046   0.16659   -0.411042           
         O         O         0.32990   0.58776   0.23375   -0.418528           
         N         N         0.37228   0.62752   0.18693   -0.201253           
         H         H         0.41288   0.71849   0.20290   0.131987  
         H         H         0.42707   0.64901   0.41072   0.134841  
         H         H         0.45386   0.62075   0.38940   0.110167  
         H         H         0.28111   0.58726   0.14980   0.131396  
         H         H         0.35093   0.56898   0.94780   0.132206  
         H         H         0.37619   0.53915   0.93812   0.109407  
         C         C         0.32470   0.15367   0.23166   0.014745  
         C         C         0.37185   0.15484   0.24581   -0.063005           
         C         C         0.27782   0.15306   0.22083   -0.069002           
         C         C         0.34146   0.13971   0.25236   -0.068971           
         C         C         0.32716   0.10982   0.28819   0.430373  
         C         C         0.29347   0.13809   0.23001   -0.069383           
         C         C         0.27662   0.10518   0.22797   0.421910  
         C         C         0.27870   0.05964   0.24868   0.179592  
         C         C         0.28849   0.03989   0.16634   -0.156782           
         C         C         0.27243   0.00809   0.14986   -0.046390           
         C         C         0.25288   0.04721   0.31320   -0.166514           
         C         C         0.23656   0.01510   0.29085   -0.032987           
         C         C         0.24583   0.99485   0.20813   -0.237745           
         O         O         0.34266   0.10053   0.34276   -0.409806           
         O         O         0.24848   0.08988   0.19999   -0.403216           
         N         N         0.29440   0.09221   0.25663   -0.210120           
         H         H         0.38442   0.14374   0.26221   0.138839  
         H         H         0.30810   0.04903   0.11251   0.131147  
         H         H         0.28032   0.99309   0.08589   0.110477  
         H         H         0.25372   0.14041   0.21906   0.131317  
         H         H         0.24513   0.06207   0.37897   0.128486  
         H         H         0.21662   0.00590   0.34245   0.112914  
         C         C         0.33945   0.18387   0.21406   0.013962  
         C         C         0.29287   0.18363   0.21387   -0.073649           
         C         C         0.38579   0.18365   0.21634   -0.062346           
         C         C         0.32325   0.19880   0.20713   -0.070613           
         C         C         0.33850   0.23096   0.19842   0.423678  
         C         C         0.36996   0.19831   0.20180   -0.059518           
         C         C         0.38472   0.22857   0.17013   0.431897  
         C         C         0.38681   0.27795   0.20182   0.180433  
         C         C         0.37261   0.28922   0.11186   -0.168183           
         C         C         0.38948   0.32106   0.12898   -0.031955           
         C         C         0.41791   0.29871   0.30869   -0.152323           
         C         C         0.43472   0.33025   0.32043   -0.051177           
         C         C         0.42082   0.34213   0.23180   -0.233412           
         O         O         0.32487   0.24455   0.19885   -0.407809           
         O         O         0.40869   0.23892   0.12587   -0.413373           
         N         N         0.36962   0.24531   0.19234   -0.208512           
         H         H         0.28114   0.19593   0.21190   0.136302  
         H         H         0.34869   0.27357   0.02893   0.130938  
         H         H         0.37822   0.32942   0.05665   0.113310  
         H         H         0.40925   0.19515   0.20611   0.134475  
         H         H         0.42871   0.29031   0.38369   0.129397  
         H         H         0.45887   0.34601   0.40282   0.111894 

