
##########################################################################
#               Crystallographic Information Format file
#               Produced by PyCifRW module
#
#  This is a CIF file.  CIF has been adopted by the International
#  Union of Crystallography as the standard for data archiving and
#  transmission.
#
#  For information on this file format, follow the CIF links at
#  http://www.iucr.org
##########################################################################

data_image0

_cell_length_a                          14.0725
_cell_length_b                          14.0985
_cell_length_c                          8.13456
_cell_angle_alpha                       59.3445
_cell_angle_beta                        110.662
_cell_angle_gamma                       119.748
_symmetry_space_group_name_H-M          'P 1'
_space_group_name_Hall                  'P 1'
loop_
  _atom_site_type_symbol
  _atom_site_label
  _atom_site_fract_x
  _atom_site_fract_y
  _atom_site_fract_z
  _atom_site_charge
         O         O         0.70549   0.26957   0.22758   -0.567589           
         O         O         0.75614   0.45585   0.24019   -0.571048           
         O         O         0.56842   0.30952   0.26596   -0.572461           
         O         O         0.26421   0.70377   0.26569   -0.568627           
         O         O         0.45576   0.74900   0.28624   -0.571051           
         O         O         0.31528   0.56738   0.25505   -0.571491           
         B         B         0.78571   0.37948   0.22794   0.733267  
         B         B         0.64747   0.42165   0.25667   0.720919  
         B         B         0.59783   0.23334   0.25257   0.732274  
         B         B         0.37486   0.78093   0.27803   0.727439  
         B         B         0.42617   0.64288   0.27410   0.716193  
         B         B         0.23430   0.59727   0.25343   0.733405  
         C         C         0.90656   0.41383   0.22112   -0.340416           
         C         C         0.61651   0.50746   0.26994   -0.336562           
         C         C         0.51554   0.61011   0.27521   -0.330805           
         C         C         0.51089   0.10913   0.26556   -0.348142           
         C         C         0.40770   0.90033   0.28431   -0.335609           
         C         C         0.11242   0.51254   0.23753   -0.346190           
         S         S         0.00863   0.54715   0.22835   0.254383  
         S         S         0.48125   0.47712   0.26697   0.253061  
         S         S         0.54218   0.00483   0.26851   0.255233  
         C         C         0.95215   0.34484   0.22353   -0.076862           
         C         C         0.68607   0.61805   0.27822   -0.067943           
         C         C         0.39908   0.06271   0.27969   -0.069330           
         C         C         0.34080   0.94545   0.28908   -0.075235           
         C         C         0.62926   0.67580   0.28113   -0.065554           
         C         C         0.06826   0.40070   0.23279   -0.072302           
         H         H         0.90184   0.25749   0.21878   0.127270  
         H         H         0.77513   0.65283   0.28442   0.124920  
         H         H         0.36293   0.11328   0.28488   0.126129  
         H         H         0.25292   0.89387   0.29963   0.127363  
         H         H         0.66764   0.76208   0.28947   0.127133  
         H         H         0.11977   0.36222   0.23605   0.125161  
         O         O         0.67953   0.25115   0.72854   -0.566842           
         O         O         0.73297   0.43563   0.75083   -0.570146           
         O         O         0.54295   0.29460   0.75946   -0.576066           
         O         O         0.23787   0.68694   0.76189   -0.567633           
         O         O         0.42998   0.73188   0.78623   -0.571284           
         O         O         0.29003   0.55036   0.75538   -0.568527           
         B         B         0.76091   0.35895   0.73515   0.730300  
         B         B         0.62327   0.40499   0.75628   0.718612  
         B         B         0.57143   0.21665   0.74949   0.731778  
         B         B         0.34850   0.76376   0.77648   0.725830  
         B         B         0.40089   0.62562   0.77480   0.716772  
         B         B         0.20844   0.58021   0.75129   0.739183  
         C         C         0.88143   0.39294   0.72577   -0.341367           
         C         C         0.59093   0.49129   0.76560   -0.336224           
         C         C         0.49006   0.59196   0.77698   -0.337785           
         C         C         0.48365   0.09275   0.76250   -0.342321           
         C         C         0.38098   0.88306   0.78406   -0.340771           
         C         C         0.08687   0.49490   0.73580   -0.350292           
         S         S         0.98297   0.52515   0.73730   0.259958  
         S         S         0.45475   0.46047   0.76084   0.250173  
         S         S         0.51519   0.98820   0.76710   0.261025  
         C         C         0.92777   0.32798   0.71890   -0.074422           
         C         C         0.66107   0.60052   0.77984   -0.065800           
         C         C         0.37187   0.04623   0.77771   -0.071932           
         C         C         0.31415   0.92846   0.78824   -0.073414           
         C         C         0.60429   0.65744   0.78642   -0.061588           
         C         C         0.04331   0.38540   0.72384   -0.071496           
         H         H         0.87832   0.24174   0.71068   0.125113  
         H         H         0.75067   0.63656   0.78730   0.127447  
         H         H         0.33576   0.09684   0.78289   0.127694  
         H         H         0.22647   0.87679   0.79915   0.125451  
         H         H         0.64388   0.74220   0.80121   0.127189  
         H         H         0.09503   0.35028   0.71873   0.124451 

