
##########################################################################
#               Crystallographic Information Format file
#               Produced by PyCifRW module
#
#  This is a CIF file.  CIF has been adopted by the International
#  Union of Crystallography as the standard for data archiving and
#  transmission.
#
#  For information on this file format, follow the CIF links at
#  http://www.iucr.org
##########################################################################

data_image0

_cell_length_a                          20.9167
_cell_length_b                          21.0371
_cell_length_c                          8.07974
_cell_angle_alpha                       88.8403
_cell_angle_beta                        116.497
_cell_angle_gamma                       120.206
_symmetry_space_group_name_H-M          'P 1'
_space_group_name_Hall                  'P 1'
loop_
  _atom_site_type_symbol
  _atom_site_label
  _atom_site_fract_x
  _atom_site_fract_y
  _atom_site_fract_z
  _atom_site_charge
         O         O         0.54479   0.47629   0.74296   -0.574225           
         O         O         0.42586   0.45800   0.76632   -0.567958           
         O         O         0.52197   0.57826   0.73453   -0.570184           
         B         B         0.57063   0.55110   0.73569   0.708668  
         B         B         0.47178   0.42945   0.75564   0.725973  
         B         B         0.44999   0.53196   0.75106   0.723875  
         O         O         0.11170   0.86146   0.72454   -0.575332           
         O         O         0.23516   0.88467   0.71487   -0.564706           
         O         O         0.13802   0.76177   0.73489   -0.568285           
         B         B         0.08708   0.78673   0.72964   0.710035  
         B         B         0.18588   0.91053   0.71779   0.725096  
         B         B         0.21151   0.81049   0.72519   0.720059  
         C         C         0.76394   0.71010   0.71162   -0.176805           
         C         C         0.65138   0.60295   0.72371   -0.341618           
         S         S         0.71649   0.57290   0.73657   0.194063  
         C         C         0.78976   0.65962   0.72482   -0.014080           
         C         C         0.68643   0.67806   0.71075   -0.049498           
         C         C         0.00485   0.73255   0.73438   -0.340740           
         S         S         0.93995   0.76184   0.72727   0.189052  
         C         C         0.86559   0.67331   0.73000   -0.014362           
         C         C         0.89107   0.62293   0.73638   -0.175798           
         C         C         0.96919   0.65643   0.73908   -0.050474           
         H         H         0.65532   0.70776   0.70092   0.126187  
         H         H         -0.00001  0.62698   0.74300   0.128000  
         H         H         0.80080   0.76777   0.70197   0.127354  
         H         H         0.85350   0.56406   0.73846   0.128395  
         C         C         0.28644   0.56682   0.74706   -0.176824           
         C         C         0.39647   0.56148   0.75133   -0.339753           
         S         S         0.42578   0.65366   0.73917   0.191021  
         C         C         0.33699   0.64074   0.73784   -0.025952           
         C         C         0.32022   0.52271   0.75461   -0.061238           
         C         C         0.26571   0.78197   0.72443   -0.338942           
         S         S         0.23627   0.68971   0.73664   0.194363  
         C         C         0.32384   0.70192   0.73313   -0.023945           
         C         C         0.37389   0.77550   0.72160   -0.174183           
         C         C         0.34112   0.82021   0.71757   -0.061592           
         H         H         0.29100   0.46401   0.76381   0.127294  
         H         H         0.37064   0.87892   0.70844   0.126937  
         H         H         0.22817   0.54671   0.75097   0.128285  
         H         H         0.43107   0.79482   0.71344   0.126446  
         C         C         0.43065   0.23018   0.72547   -0.174998           
         C         C         0.44166   0.34641   0.75420   -0.352357           
         S         S         0.34861   0.28378   0.75760   0.181155  
         C         C         0.35784   0.20725   0.73717   -0.008889           
         C         C         0.47748   0.30827   0.73526   -0.059075           
         C         C         0.21386   0.99311   0.71746   -0.353567           
         S         S         0.30723   0.05702   0.71686   0.186231  
         C         C         0.29623   0.13252   0.73506   -0.011472           
         C         C         0.22231   0.10826   0.74290   -0.175014           
         C         C         0.17628   0.03001   0.73280   -0.057059           
         H         H         0.53528   0.33703   0.72543   0.128337  
         H         H         0.11786   0.00030   0.74003   0.128353  
         H         H         0.44775   0.19083   0.70771   0.127636  
         H         H         0.20382   0.14676   0.75780   0.126666  
         O         O         0.55475   0.47131   0.24293   -0.576347           
         O         O         0.43376   0.45073   0.26008   -0.564574           
         O         O         0.52943   0.57172   0.22996   -0.567373           
         B         B         0.57944   0.54577   0.23437   0.707346  
         B         B         0.48151   0.42359   0.25423   0.724958  
         B         B         0.45736   0.52457   0.24577   0.718972  
         O         O         0.12231   0.85723   0.22413   -0.571617           
         O         O         0.24165   0.87602   0.20175   -0.566983           
         O         O         0.14383   0.75476   0.22644   -0.569461           
         B         B         0.09522   0.78185   0.22581   0.708736  
         B         B         0.19558   0.90434   0.21263   0.722971  
         B         B         0.21719   0.80187   0.21563   0.723144  
         C         C         0.77211   0.70712   0.21219   -0.174809           
         C         C         0.66048   0.59879   0.22415   -0.339053           
         S         S         0.72629   0.56993   0.23581   0.190987  
         C         C         0.79881   0.65738   0.22466   -0.015035           
         C         C         0.69455   0.67396   0.21188   -0.051812           
         C         C         0.01337   0.72921   0.23243   -0.343694           
         S         S         0.94928   0.75942   0.22632   0.192023  
         C         C         0.87458   0.67126   0.22920   -0.014525           
         C         C         0.89918   0.62027   0.23427   -0.176364           
         C         C         0.97702   0.65301   0.23627   -0.050119           
         H         H         0.66279   0.70287   0.20350   0.128591  
         H         H         0.00726   0.62305   0.23944   0.127303  
         H         H         0.80804   0.76500   0.20242   0.128870  
         H         H         0.86094   0.56155   0.23626   0.126493  
         C         C         0.29504   0.55892   0.25063   -0.176561           
         C         C         0.40380   0.55353   0.24807   -0.337616           
         S         S         0.43270   0.64562   0.23611   0.194757  
         C         C         0.34480   0.63266   0.23949   -0.025186           
         C         C         0.32846   0.51477   0.25508   -0.060328           
         C         C         0.27156   0.77273   0.21941   -0.338794           
         S         S         0.24205   0.68044   0.23105   0.190125  
         C         C         0.33142   0.69367   0.23500   -0.025613           
         C         C         0.38235   0.76774   0.22736   -0.176657           
         C         C         0.34832   0.81171   0.21853   -0.062030           
         H         H         0.29938   0.45601   0.26397   0.126463  
         H         H         0.37783   0.87052   0.21044   0.126800  
         H         H         0.23770   0.53907   0.25854   0.129146  
         H         H         0.44099   0.78798   0.22508   0.128486  
         C         C         0.44312   0.22536   0.22824   -0.175725           
         C         C         0.45281   0.34097   0.25539   -0.353835           
         S         S         0.35917   0.27754   0.25553   0.188026  
         C         C         0.36932   0.20161   0.23597   -0.011890           
         C         C         0.48986   0.30362   0.23949   -0.057081           
         C         C         0.22545   0.98742   0.21575   -0.351590           
         S         S         0.31853   0.05108   0.21383   0.181682  
         C         C         0.30779   0.12672   0.23321   -0.011643           
         C         C         0.23454   0.10280   0.24373   -0.172729           
         C         C         0.18849   0.02457   0.23348   -0.058980           
         H         H         0.54839   0.33309   0.23278   0.128913  
         H         H         0.13036   0.99500   0.24190   0.127657  
         H         H         0.46089   0.18642   0.21203   0.126676  
         H         H         0.21645   0.14142   0.26061   0.128347 

