
##########################################################################
#               Crystallographic Information Format file
#               Produced by PyCifRW module
#
#  This is a CIF file.  CIF has been adopted by the International
#  Union of Crystallography as the standard for data archiving and
#  transmission.
#
#  For information on this file format, follow the CIF links at
#  http://www.iucr.org
##########################################################################

data_image0

_cell_length_a                          18.1059
_cell_length_b                          18.172
_cell_length_c                          8.19329
_cell_angle_alpha                       125.629
_cell_angle_beta                        72.3304
_cell_angle_gamma                       120.439
_symmetry_space_group_name_H-M          'P 1'
_space_group_name_Hall                  'P 1'
loop_
  _atom_site_type_symbol
  _atom_site_label
  _atom_site_fract_x
  _atom_site_fract_y
  _atom_site_fract_z
  _atom_site_charge
         O         O         0.54259   0.46147   0.71090   -0.569853           
         O         O         0.40948   0.46174   0.71418   -0.568928           
         O         O         0.54346   0.60000   0.73152   -0.562176           
         B         B         0.58731   0.55328   0.72355   0.729071  
         B         B         0.45338   0.41677   0.71246   0.703449  
         B         B         0.45430   0.55312   0.72506   0.720998  
         O         O         0.12118   0.89229   0.75540   -0.573669           
         O         O         0.25557   0.89041   0.73583   -0.571847           
         O         O         0.12291   0.75666   0.74096   -0.562135           
         B         B         0.07773   0.80160   0.74820   0.731500  
         B         B         0.21035   0.93703   0.75065   0.707840  
         B         B         0.21211   0.80180   0.73688   0.716724  
         C         C         0.97986   0.75073   0.74598   -0.340224           
         C         C         0.68536   0.60246   0.72459   -0.334672           
         S         S         0.92241   0.63724   0.73713   0.179708  
         S         S         0.74279   0.71644   0.73505   0.172435  
         C         C         0.82610   0.63342   0.72972   -0.032439           
         C         C         0.83904   0.71890   0.73762   -0.026226           
         C         C         0.92654   0.78505   0.74599   -0.111896           
         C         C         0.73851   0.56772   0.72266   -0.112709           
         H         H         0.95171   0.85371   0.74833   0.139048  
         H         H         0.71391   0.49882   0.71970   0.138457  
         C         C         0.26156   0.75452   0.73926   -0.320142           
         C         C         0.40528   0.60145   0.72398   -0.314201           
         S         S         0.37310   0.81470   0.76038   0.183152  
         S         S         0.29366   0.54073   0.70073   0.179998  
         C         C         0.37541   0.71650   0.74282   -0.032143           
         C         C         0.29166   0.63999   0.72207   -0.034741           
         C         C         0.22774   0.66233   0.72152   -0.115370           
         C         C         0.43924   0.69449   0.74618   -0.119629           
         H         H         0.15974   0.61330   0.70411   0.140184  
         H         H         0.50737   0.74294   0.76487   0.141105  
         C         C         0.25794   0.03457   0.74885   -0.314755           
         C         C         0.40563   0.32146   0.72181   -0.320307           
         S         S         0.20218   0.09564   0.77204   0.164373  
         S         S         0.46123   0.26148   0.70469   0.164056  
         C         C         0.29588   0.18765   0.75107   -0.025404           
         C         C         0.36737   0.17021   0.72723   -0.014709           
         C         C         0.34551   0.08331   0.72559   -0.101867           
         C         C         0.31804   0.27368   0.74880   -0.099963           
         H         H         0.38993   0.05592   0.70966   0.136590  
         H         H         0.27397   0.30122   0.76386   0.133480  
         O         O         0.54802   0.44331   0.20620   -0.572741           
         O         O         0.41379   0.44354   0.21619   -0.570384           
         O         O         0.54744   0.58223   0.23273   -0.560060           
         B         B         0.59232   0.53580   0.22063   0.726515  
         B         B         0.45869   0.39840   0.20891   0.708535  
         B         B         0.45832   0.53440   0.22423   0.712804  
         O         O         0.12800   0.87603   0.25759   -0.571252           
         O         O         0.26204   0.87554   0.25058   -0.567780           
         O         O         0.12808   0.73641   0.22875   -0.565853           
         B         B         0.08340   0.78386   0.24334   0.732566  
         B         B         0.21731   0.91997   0.25323   0.704825  
         B         B         0.21726   0.78420   0.23932   0.722221  
         C         C         0.98529   0.73443   0.24228   -0.334096           
         C         C         0.69064   0.58659   0.22406   -0.334347           
         S         S         0.92770   0.61979   0.22947   0.172832  
         S         S         0.74817   0.70202   0.23929   0.175529  
         C         C         0.83147   0.61822   0.23064   -0.029191           
         C         C         0.84456   0.70449   0.24133   -0.031270           
         C         C         0.93199   0.77005   0.24753   -0.111841           
         C         C         0.74387   0.55202   0.22249   -0.111823           
         H         H         0.95599   0.83937   0.25160   0.138621  
         H         H         0.71998   0.48256   0.21691   0.139711  
         C         C         0.26602   0.73663   0.24353   -0.314509           
         C         C         0.40949   0.58198   0.22097   -0.318863           
         S         S         0.37746   0.79725   0.26742   0.184266  
         S         S         0.29794   0.52178   0.20033   0.183645  
         C         C         0.37956   0.69784   0.24469   -0.038808           
         C         C         0.29572   0.62137   0.22394   -0.029705           
         C         C         0.23175   0.64386   0.22341   -0.122904           
         C         C         0.44344   0.67520   0.24410   -0.115495           
         H         H         0.16373   0.59469   0.20157   0.141416  
         H         H         0.51169   0.72349   0.25913   0.140959  
         C         C         0.26495   0.01453   0.24194   -0.323633           
         C         C         0.41016   0.30160   0.21483   -0.313772           
         S         S         0.20833   0.07483   0.26517   0.164052  
         S         S         0.46663   0.24094   0.19004   0.163473  
         C         C         0.30142   0.16627   0.24034   -0.016392           
         C         C         0.37352   0.14951   0.21492   -0.025243           
         C         C         0.35239   0.06356   0.21560   -0.100171           
         C         C         0.32285   0.25293   0.24189   -0.103051           
         H         H         0.39770   0.03671   0.19667   0.132956  
         H         H         0.27768   0.28043   0.26243   0.136092 

