
##########################################################################
#               Crystallographic Information Format file
#               Produced by PyCifRW module
#
#  This is a CIF file.  CIF has been adopted by the International
#  Union of Crystallography as the standard for data archiving and
#  transmission.
#
#  For information on this file format, follow the CIF links at
#  http://www.iucr.org
##########################################################################

data_image0

_cell_length_a                          30.0488
_cell_length_b                          30.01
_cell_length_c                          8.15151
_cell_angle_alpha                       122.504
_cell_angle_beta                        85.6434
_cell_angle_gamma                       119.831
_symmetry_space_group_name_H-M          'P 1'
_space_group_name_Hall                  'P 1'
loop_
  _atom_site_type_symbol
  _atom_site_label
  _atom_site_fract_x
  _atom_site_fract_y
  _atom_site_fract_z
  _atom_site_charge
         O         O         0.29615   0.56264   -0.00119  -0.476758           
         N         N         0.39135   0.58582   0.02219   -0.237482           
         C         C         0.31262   0.61052   -0.00250  0.357571  
         C         C         0.40450   0.63468   0.01725   0.126353  
         C         C         0.42403   0.56565   0.02631   0.207461  
         C         C         0.47698   0.59363   0.01558   -0.182082           
         C         C         0.50639   0.56907   0.01010   -0.116923           
         C         C         0.48523   0.51644   0.01663   0.043622  
         C         C         0.43227   0.48990   0.03110   -0.120327           
         C         C         0.40224   0.51361   0.03520   -0.183449           
         C         C         0.36777   0.64873   0.00509   -0.248916           
         H         H         0.44530   0.66492   0.02339   0.101517  
         H         H         0.49488   0.63321   0.00457   0.119141  
         H         H         0.35090   0.56176   0.01832   0.271661  
         H         H         0.36153   0.49220   0.04695   0.127525  
         H         H         0.54671   0.59121   -0.00362  0.104854  
         H         H         0.41387   0.45030   0.04220   0.102995  
         O         O         0.43567   0.73569   0.00708   -0.480715           
         N         N         0.41452   0.80490   0.97707   -0.231225           
         C         C         0.38716   0.70319   0.00062   0.357106  
         C         C         0.36511   0.76961   0.97988   0.117150  
         C         C         0.43552   0.85762   0.97422   0.216931  
         C         C         0.40623   0.88274   0.97869   -0.189169           
         C         C         0.43075   0.93747   0.98686   -0.116160           
         C         C         0.48469   0.96920   0.98855   0.052774  
         C         C         0.51267   0.94177   0.97688   -0.121051           
         C         C         0.48887   0.88734   0.96990   -0.174750           
         C         C         0.34954   0.71920   0.98996   -0.253415           
         H         H         0.33546   0.77967   0.97208   0.101294  
         H         H         0.36464   0.86039   0.97942   0.122578  
         H         H         0.43843   0.78963   0.98654   0.270884  
         H         H         0.51125   0.86705   0.96156   0.127317  
         H         H         0.40717   0.95638   0.99504   0.100442  
         H         H         0.55384   0.96287   0.97045   0.105458  
         O         O         0.26286   0.70036   0.98850   -0.479158           
         N         N         0.18819   0.60670   0.98809   -0.229871           
         C         C         0.29435   0.68369   0.98963   0.350073  
         C         C         0.22452   0.59352   0.99151   0.120878  
         C         C         0.13501   0.57458   0.98819   0.209372  
         C         C         0.10971   0.51708   0.96607   -0.189511           
         C         C         0.05657   0.48747   0.96652   -0.116101           
         C         C         0.02612   0.51321   0.98921   0.045383  
         C         C         0.05235   0.57084   0.01028   -0.119992           
         C         C         0.10539   0.60086   0.00910   -0.181124           
         C         C         0.27657   0.62916   0.99084   -0.239232           
         H         H         0.21353   0.55393   -0.00307  0.100029  
         H         H         0.13116   0.49488   0.94625   0.118970  
         H         H         0.20523   0.64723   0.98945   0.271713  
         H         H         0.12455   0.64526   0.02523   0.125853  
         H         H         0.03838   0.44270   0.94673   0.102664  
         H         H         0.03126   0.59337   0.02953   0.106117  
         O         O         0.70316   0.43648   -0.00031  -0.477023           
         N         N         0.60915   0.41779   0.98928   -0.236920           
         C         C         0.68581   0.38872   0.00233   0.359036  
         C         C         0.59538   0.36887   0.99524   0.124045  
         C         C         0.57725   0.43956   0.99114   0.207384  
         C         C         0.52439   0.41199   0.00305   -0.183214           
         C         C         0.49533   0.43729   0.01229   -0.115939           
         C         C         0.51685   0.49061   0.00937   0.043221  
         C         C         0.56991   0.51723   -0.00396  -0.118674           
         C         C         0.59953   0.49254   0.98715   -0.186433           
         C         C         0.63089   0.35266   0.00162   -0.243110           
         H         H         0.55478   0.34022   0.99523   0.100974  
         H         H         0.50606   0.37171   0.01046   0.120121  
         H         H         0.64923   0.44048   0.98792   0.272678  
         H         H         0.64024   0.51414   0.97579   0.128213  
         H         H         0.45495   0.41499   0.02523   0.105200  
         H         H         0.58880   0.55775   0.98975   0.103475  
         O         O         0.56206   0.26701   0.00417   -0.479230           
         N         N         0.58109   0.19521   0.02965   -0.231424           
         C         C         0.61050   0.29814   0.00735   0.356667  
         C         C         0.63063   0.23005   0.02618   0.115051  
         C         C         0.55963   0.14160   0.02804   0.217619  
         C         C         0.59048   0.12225   0.05721   -0.185036           
         C         C         0.56600   0.06697   0.04591   -0.113203           
         C         C         0.51033   0.02816   0.00258   0.051098  
         C         C         0.48041   0.04920   0.97699   -0.124538           
         C         C         0.50428   0.10488   0.99183   -0.176949           
         C         C         0.64707   0.28051   0.01538   -0.251515           
         H         H         0.65953   0.21867   0.03073   0.101309  
         H         H         0.63359   0.15100   0.09355   0.120993  
         H         H         0.55733   0.21042   0.01941   0.272182  
         H         H         0.48019   0.11965   0.96893   0.126104  
         H         H         0.59124   0.05469   0.07689   0.101768  
         H         H         0.43731   0.02095   0.94075   0.103087  
         O         O         0.73194   0.29427   -0.00159  -0.481853           
         N         N         0.80768   0.38642   0.98995   -0.229410           
         C         C         0.70171   0.31320   0.00536   0.349084  
         C         C         0.77206   0.40125   0.99426   0.119831  
         C         C         0.86050   0.41786   0.98481   0.205983  
         C         C         0.88354   0.47060   0.97918   -0.192067           
         C         C         0.93677   0.50086   0.97998   -0.115400           
         C         C         0.96971   0.48095   0.98933   0.044246  
         C         C         0.94566   0.42788   0.99463   -0.120530           
         C         C         0.89231   0.39655   0.99069   -0.178439           
         C         C         0.72043   0.36765   0.00242   -0.243011           
         H         H         0.78351   0.44136   0.99142   0.100696  
         H         H         0.85988   0.48759   0.96998   0.120145  
         H         H         0.79090   0.34636   0.99030   0.273844  
         H         H         0.87529   0.35641   -0.00130  0.123550  
         H         H         0.95245   0.54006   0.96794   0.103761  
         H         H         0.96916   0.41114   0.00708   0.103241  
         O         O         0.29688   0.56244   0.49828   -0.476829           
         N         N         0.39218   0.58495   0.52520   -0.237166           
         C         C         0.31398   0.61036   0.49667   0.358136  
         C         C         0.40557   0.63346   0.51757   0.125773  
         C         C         0.42461   0.56443   0.52889   0.207198  
         C         C         0.47816   0.59370   0.52589   -0.181870           
         C         C         0.50739   0.56878   0.51869   -0.116404           
         C         C         0.48538   0.51436   0.51540   0.042735  
         C         C         0.43178   0.48639   0.52176   -0.120519           
         C         C         0.40199   0.51062   0.52839   -0.183001           
         C         C         0.36927   0.64789   0.50392   -0.246124           
         H         H         0.44637   0.66315   0.52217   0.100956  
         H         H         0.49683   0.63496   0.52352   0.121204  
         H         H         0.35172   0.56092   0.52041   0.272244  
         H         H         0.36079   0.48806   0.53410   0.127656  
         H         H         0.54834   0.59228   0.51242   0.105600  
         H         H         0.41266   0.44513   0.52414   0.104912  
         O         O         0.43784   0.73355   0.50127   -0.481176           
         N         N         0.41869   0.80498   0.47623   -0.231733           
         C         C         0.38934   0.70214   0.49730   0.356594  
         C         C         0.36915   0.77036   0.48026   0.116735  
         C         C         0.44038   0.85800   0.47442   0.216345  
         C         C         0.41095   0.88222   0.47208   -0.183936           
         C         C         0.43569   0.93704   0.48104   -0.116583           
         C         C         0.49024   0.97020   0.49168   0.052897  
         C         C         0.51853   0.94386   0.48765   -0.124944           
         C         C         0.49436   0.88899   0.47843   -0.173663           
         C         C         0.35256   0.71934   0.48810   -0.250205           
         H         H         0.34024   0.78179   0.47657   0.100235  
         H         H         0.36884   0.85863   0.46481   0.119720  
         H         H         0.44201   0.78877   0.48253   0.272711  
         H         H         0.51717   0.86983   0.47670   0.124985  
         H         H         0.41159   0.95457   0.48112   0.103128  
         H         H         0.56039   0.96633   0.49064   0.105338  
         O         O         0.26649   0.70253   0.49117   -0.479343           
         N         N         0.19070   0.60906   0.48988   -0.231683           
         C         C         0.29732   0.68481   0.48974   0.350874  
         C         C         0.22646   0.59488   0.49085   0.120535  
         C         C         0.13748   0.57718   0.49023   0.211371  
         C         C         0.11085   0.51725   0.45144   -0.187734           
         C         C         0.05763   0.48766   0.45126   -0.118168           
         C         C         0.02854   0.51591   0.49004   0.047750  
         C         C         0.05609   0.57601   0.52822   -0.119396           
         C         C         0.10920   0.60603   0.52768   -0.180364           
         C         C         0.27866   0.62987   0.48992   -0.241931           
         H         H         0.21482   0.55497   0.49525   0.100811  
         H         H         0.13126   0.49306   0.41761   0.118933  
         H         H         0.20822   0.65007   0.49397   0.272866  
         H         H         0.12945   0.65247   0.55785   0.125750  
         H         H         0.03810   0.44078   0.41685   0.103653  
         H         H         0.03600   0.60051   0.56152   0.105646  
         O         O         0.70334   0.43630   0.49823   -0.475359           
         N         N         0.60905   0.41570   0.48830   -0.238415           
         C         C         0.68689   0.38868   0.50087   0.357823  
         C         C         0.59583   0.36689   0.49383   0.125229  
         C         C         0.57699   0.43713   0.48955   0.208432  
         C         C         0.52387   0.40904   0.49852   -0.182144           
         C         C         0.49502   0.43461   0.50834   -0.115545           
         C         C         0.51688   0.48835   0.50766   0.043714  
         C         C         0.57006   0.51521   0.49588   -0.118909           
         C         C         0.59958   0.49050   0.48755   -0.184963           
         C         C         0.63218   0.35173   0.50025   -0.246385           
         H         H         0.55536   0.33774   0.49359   0.102099  
         H         H         0.50526   0.36823   0.50323   0.119950  
         H         H         0.64921   0.43875   0.48734   0.271122  
         H         H         0.64045   0.51211   0.47754   0.128072  
         H         H         0.45448   0.41223   0.51976   0.104770  
         H         H         0.58893   0.55574   0.48958   0.103668  
         O         O         0.56460   0.26536   0.50168   -0.479327           
         N         N         0.58587   0.19602   0.53161   -0.231266           
         C         C         0.61293   0.29741   0.50566   0.357619  
         C         C         0.63509   0.23107   0.52668   0.116010  
         C         C         0.56490   0.14264   0.53088   0.217876  
         C         C         0.59589   0.12303   0.55737   -0.187241           
         C         C         0.57154   0.06766   0.54571   -0.116871           
         C         C         0.51594   0.02932   0.50641   0.052961  
         C         C         0.48603   0.05099   0.48529   -0.122674           
         C         C         0.50969   0.10641   0.49876   -0.174345           
         C         C         0.65045   0.28100   0.51401   -0.251639           
         H         H         0.66458   0.22057   0.53232   0.100971  
         H         H         0.63894   0.15138   0.59030   0.121958  
         H         H         0.56165   0.21066   0.52014   0.272408  
         H         H         0.48554   0.12153   0.47887   0.126700  
         H         H         0.59685   0.05474   0.57194   0.103371  
         H         H         0.44303   0.02357   0.45465   0.102763  
         O         O         0.73618   0.29722   0.50038   -0.481385           
         N         N         0.80996   0.38891   0.48709   -0.229226           
         C         C         0.70499   0.31481   0.50503   0.351705  
         C         C         0.77384   0.40308   0.49156   0.119612  
         C         C         0.86283   0.42068   0.48318   0.205267  
         C         C         0.88616   0.47400   0.48055   -0.190834           
         C         C         0.93949   0.50426   0.48218   -0.114904           
         C         C         0.97209   0.48377   0.48956   0.042501  
         C         C         0.94784   0.43026   0.49251   -0.124446           
         C         C         0.89442   0.39896   0.48768   -0.179084           
         C         C         0.72250   0.36881   0.50085   -0.242261           
         H         H         0.78443   0.44278   0.48755   0.100922  
         H         H         0.86269   0.49137   0.47288   0.120614  
         H         H         0.79357   0.34912   0.48917   0.272134  
         H         H         0.87706   0.35848   0.49407   0.125026  
         H         H         0.95543   0.54371   0.47124   0.103635  
         H         H         0.97130   0.41341   0.50448   0.108812 

