
##########################################################################
#               Crystallographic Information Format file
#               Produced by PyCifRW module
#
#  This is a CIF file.  CIF has been adopted by the International
#  Union of Crystallography as the standard for data archiving and
#  transmission.
#
#  For information on this file format, follow the CIF links at
#  http://www.iucr.org
##########################################################################

data_image0

_cell_length_a                          38.6488
_cell_length_b                          33.7116
_cell_length_c                          13.031
_cell_angle_alpha                       89.6816
_cell_angle_beta                        90.0322
_cell_angle_gamma                       90.0394
_symmetry_space_group_name_H-M          'P 1'
_space_group_name_Hall                  'P 1'
loop_
  _atom_site_type_symbol
  _atom_site_label
  _atom_site_fract_x
  _atom_site_fract_y
  _atom_site_fract_z
  _atom_site_charge
         C         C         0.27477   0.71835   0.25680   -0.118378           
         C         C         0.77794   0.22276   0.23619   -0.121374           
         C         C         0.72277   0.27944   0.25575   -0.115963           
         C         C         0.22213   0.77833   0.24597   -0.121773           
         C         C         0.72493   0.72147   0.24685   -0.122198           
         C         C         0.22634   0.22064   0.25294   -0.120343           
         C         C         0.27942   0.28023   0.26708   -0.120170           
         C         C         0.77712   0.78245   0.23468   -0.115292           
         C         C         0.21362   0.73781   0.25173   0.155620  
         C         C         0.71605   0.23892   0.23831   0.150602  
         C         C         0.78486   0.26337   0.25315   0.151230  
         C         C         0.28323   0.75889   0.24866   0.149308  
         C         C         0.78593   0.74184   0.23380   0.145976  
         C         C         0.28770   0.23960   0.26316   0.150556  
         C         C         0.21826   0.26132   0.25681   0.150668  
         C         C         0.71645   0.76202   0.25273   0.151811  
         C         C         0.23928   0.70900   0.25629   0.123038  
         C         C         0.74288   0.21163   0.23108   0.126726  
         C         C         0.75786   0.29044   0.26435   0.125027  
         C         C         0.25752   0.78756   0.24267   0.127025  
         C         C         0.76040   0.71272   0.23652   0.126730  
         C         C         0.26176   0.21104   0.25702   0.126990  
         C         C         0.24407   0.29000   0.26527   0.125166  
         C         C         0.74164   0.79121   0.24169   0.124160  
         C         C         0.97320   0.91469   0.24565   0.178622  
         C         C         0.47391   0.41576   0.25812   0.178930  
         C         C         0.02865   0.08491   0.23928   0.179557  
         C         C         0.52876   0.58664   0.24166   0.180168  
         C         C         0.03025   0.91552   0.25041   0.176742  
         C         C         0.53091   0.41702   0.26324   0.180374  
         C         C         0.97130   0.08404   0.23421   0.177894  
         C         C         0.47157   0.58571   0.24878   0.181068  
         C         C         0.98455   0.87386   0.24138   -0.179788           
         C         C         0.48543   0.37493   0.26157   -0.175789           
         C         C         0.01725   0.12570   0.23436   -0.177841           
         C         C         0.51727   0.62743   0.23881   -0.177873           
         C         C         0.01987   0.87440   0.24359   -0.178630           
         C         C         0.52074   0.37575   0.26602   -0.181118           
         C         C         0.98189   0.12517   0.23255   -0.176855           
         C         C         0.48195   0.62687   0.24315   -0.177316           
         H         H         0.96763   0.84835   0.23504   0.132169  
         H         H         0.46854   0.34928   0.26060   0.134018  
         H         H         0.03428   0.15124   0.23424   0.132942  
         H         H         0.53413   0.65302   0.23375   0.133320  
         H         H         0.03742   0.84941   0.23983   0.132747  
         H         H         0.53862   0.35105   0.27033   0.133733  
         H         H         0.96428   0.15014   0.23063   0.132094  
         H         H         0.46437   0.65188   0.24276   0.133007  
         N         N         0.44933   0.50039   0.25654   -0.355564           
         N         N         0.94836   -0.00092  0.23635   -0.354772           
         N         N         0.55333   0.50206   0.24577   -0.356468           
         N         N         0.05269   0.00047   0.26072   -0.354044           
         C         C         0.42834   0.46717   0.25886   0.178901  
         C         C         0.92737   0.96589   0.23345   0.180111  
         C         C         0.57437   0.53522   0.24232   0.180205  
         C         C         0.07380   0.03356   0.26196   0.177988  
         C         C         0.57526   0.46976   0.25271   0.179408  
         C         C         0.07454   0.96806   0.26630   0.177768  
         C         C         0.42737   0.53278   0.25885   0.179125  
         C         C         0.92650   0.03154   0.23214   0.177554  
         C         C         0.39250   0.47899   0.26436   -0.180126           
         C         C         0.89155   0.97778   0.22523   -0.183276           
         C         C         0.61024   0.52337   0.24695   -0.178554           
         C         C         0.10958   0.02165   0.27149   -0.180292           
         C         C         0.61081   0.48293   0.25332   -0.180530           
         C         C         0.11004   0.98117   0.27405   -0.181208           
         C         C         0.39187   0.51949   0.26455   -0.179403           
         C         C         0.89102   0.01830   0.22422   -0.179539           
         H         H         0.37107   0.45839   0.26880   0.128380  
         H         H         0.86983   0.95758   0.22025   0.128596  
         H         H         0.63186   0.54376   0.24691   0.128811  
         H         H         0.13129   0.04194   0.27405   0.128157  
         H         H         0.63298   0.46349   0.26022   0.129121  
         H         H         0.13230   0.96179   0.27993   0.128730  
         H         H         0.36965   0.53898   0.26771   0.128807  
         H         H         0.86870   0.03751   0.21745   0.129975  
         C         C         0.93851   0.92637   0.24019   -0.074769           
         C         C         0.43922   0.42755   0.25554   -0.070264           
         C         C         0.06326   0.07313   0.25089   -0.073555           
         C         C         0.56351   0.57486   0.23930   -0.073840           
         C         C         0.06462   0.92825   0.25870   -0.067330           
         C         C         0.56527   0.42995   0.25958   -0.072678           
         C         C         0.93664   0.07147   0.23452   -0.066687           
         C         C         0.43714   0.57278   0.25419   -0.072307           
         C         C         0.91173   0.89464   0.24419   0.082374  
         C         C         0.41221   0.39581   0.25212   0.073292  
         C         C         0.09134   0.10386   0.25458   0.077608  
         C         C         0.59099   0.60610   0.24470   0.077437  
         C         C         0.09219   0.89740   0.25537   0.069785  
         C         C         0.59256   0.39868   0.25364   0.083233  
         C         C         0.90891   0.10249   0.23817   0.068983  
         C         C         0.40893   0.60328   0.25118   0.073560  
         C         C         0.39694   0.38217   0.34315   -0.126300           
         C         C         0.90602   0.87333   0.33583   -0.132167           
         C         C         0.59953   0.62167   0.34130   -0.128929           
         C         C         0.10484   0.11640   0.34915   -0.128485           
         C         C         0.60166   0.38376   0.15687   -0.128719           
         C         C         0.10013   0.87873   0.16221   -0.126055           
         C         C         0.39479   0.61565   0.15695   -0.124400           
         C         C         0.89985   0.12427   0.15025   -0.127658           
         C         C         0.60936   0.61979   0.15879   -0.131460           
         C         C         0.10626   0.11942   0.16492   -0.130240           
         C         C         0.40209   0.37828   0.15916   -0.126330           
         C         C         0.89176   0.88541   0.15759   -0.128103           
         C         C         0.39601   0.62036   0.34113   -0.125854           
         C         C         0.89153   0.11114   0.33011   -0.125026           
         C         C         0.60843   0.38252   0.34105   -0.132702           
         C         C         0.11010   0.88576   0.34405   -0.125445           
         H         H         0.92208   0.87947   0.40254   0.120011  
         H         H         0.40528   0.39506   0.41539   0.111446  
         H         H         0.09469   0.10315   0.41926   0.111918  
         H         H         0.58535   0.61110   0.40819   0.114395  
         H         H         0.08694   0.88819   0.09251   0.113745  
         H         H         0.58924   0.39620   0.08899   0.115762  
         H         H         0.91255   0.11720   0.07827   0.109905  
         H         H         0.40412   0.60236   0.08634   0.112912  
         H         H         0.09711   0.10888   0.09095   0.113880  
         H         H         0.60290   0.60851   0.08310   0.111952  
         H         H         0.89730   0.90051   0.08541   0.112576  
         H         H         0.41396   0.38812   0.08774   0.111577  
         H         H         0.89758   0.09428   0.39927   0.113452  
         H         H         0.40681   0.61109   0.41444   0.108750  
         H         H         0.10436   0.90031   0.41641   0.111536  
         H         H         0.60095   0.39346   0.41623   0.112993  
         C         C         0.88034   0.84448   0.34151   -0.161643           
         C         C         0.37170   0.35251   0.34228   -0.186374           
         C         C         0.13075   0.14509   0.35418   -0.172393           
         C         C         0.62515   0.65033   0.35208   -0.165998           
         C         C         0.12424   0.84814   0.15821   -0.181141           
         C         C         0.62554   0.35317   0.14758   -0.159056           
         C         C         0.87492   0.15428   0.15319   -0.188492           
         C         C         0.36922   0.64467   0.15272   -0.175533           
         C         C         0.13298   0.14750   0.16892   -0.185641           
         C         C         0.63566   0.64803   0.16901   -0.185642           
         C         C         0.86550   0.85708   0.16307   -0.184646           
         C         C         0.37747   0.34808   0.15765   -0.171598           
         C         C         0.86695   0.14136   0.33439   -0.181085           
         C         C         0.36965   0.64877   0.33815   -0.187282           
         C         C         0.13483   0.85561   0.34064   -0.191568           
         C         C         0.63340   0.35274   0.33233   -0.182580           
         H         H         0.87562   0.82780   0.41181   0.122506  
         H         H         0.36065   0.34135   0.41347   0.112832  
         H         H         0.14066   0.15506   0.42770   0.112747  
         H         H         0.63120   0.66256   0.42696   0.116989  
         H         H         0.13014   0.83320   0.08661   0.119956  
         H         H         0.63216   0.34094   0.07311   0.118307  
         H         H         0.86841   0.17102   0.08428   0.113409  
         H         H         0.35854   0.65469   0.07990   0.114449  
         H         H         0.14388   0.15963   0.09848   0.114058  
         H         H         0.64909   0.65943   0.10167   0.112760  
         H         H         0.85069   0.84934   0.09502   0.112980  
         H         H         0.36964   0.33408   0.08636   0.117135  
         H         H         0.85376   0.14837   0.40568   0.116744  
         H         H         0.36016   0.66225   0.40833   0.115137  
         H         H         0.14840   0.84616   0.40966   0.116549  
         H         H         0.64536   0.33996   0.40057   0.109855  
         C         C         0.85909   0.83698   0.25611   0.198524  
         C         C         0.36146   0.33552   0.24891   0.198947  
         C         C         0.14514   0.16128   0.26401   0.199559  
         C         C         0.64389   0.66361   0.26598   0.198850  
         C         C         0.14162   0.83629   0.24772   0.196534  
         C         C         0.64227   0.33788   0.23511   0.197010  
         C         C         0.85856   0.16347   0.24613   0.200963  
         C         C         0.35621   0.66136   0.24335   0.199814  
         F         F         0.18051   0.72597   0.25243   -0.088573           
         F         F         0.68369   0.22454   0.23197   -0.090986           
         F         F         0.81753   0.27714   0.25795   -0.090443           
         F         F         0.31613   0.77168   0.24777   -0.089869           
         F         F         0.81915   0.73007   0.22721   -0.092527           
         F         F         0.32086   0.22775   0.26784   -0.090073           
         F         F         0.18547   0.27385   0.24778   -0.090165           
         F         F         0.68368   0.77383   0.26717   -0.089923           
         Cu        Cu        0.50132   0.50128   0.25236   0.561001  
         Cu        Cu        0.00061   -0.00016  0.24682   0.560425  
         C         C         0.30053   0.68661   0.26535   0.102741  
         H         H         0.29119   0.65831   0.29703   0.086832  
         C         C         0.80409   0.19152   0.22563   0.104039  
         H         H         0.79444   0.16369   0.19292   0.085087  
         C         C         0.69612   0.31020   0.26538   0.098898  
         H         H         0.70370   0.33647   0.30970   0.080226  
         C         C         0.19681   0.81041   0.24556   0.100203  
         H         H         0.20747   0.84055   0.24684   0.085378  
         C         C         0.69929   0.68947   0.24574   0.100582  
         H         H         0.70848   0.66105   0.21553   0.082304  
         C         C         0.20054   0.18868   0.24257   0.104159  
         H         H         0.21029   0.16104   0.20912   0.085138  
         C         C         0.30572   0.31142   0.27038   0.100611  
         H         H         0.29671   0.34092   0.29307   0.084750  
         C         C         0.80306   0.81415   0.23040   0.096094  
         H         H         0.79508   0.84293   0.19783   0.084714  
         F         F         0.22923   0.67052   0.25835   -0.103104           
         F         F         0.73439   0.17271   0.22199   -0.105503           
         F         F         0.76565   0.32908   0.28264   -0.104394           
         F         F         0.26745   0.82586   0.23310   -0.102695           
         F         F         0.77074   0.67441   0.23220   -0.104803           
         F         F         0.27096   0.17236   0.25690   -0.103294           
         F         F         0.23446   0.32872   0.26787   -0.104556           
         F         F         0.73101   0.82948   0.24247   -0.105165           
         N         N         0.33171   0.69190   0.23420   -0.236271           
         N         N         0.83552   0.19569   0.25553   -0.237683           
         N         N         0.66650   0.30738   0.22057   -0.248143           
         N         N         0.16410   0.80368   0.24368   -0.232996           
         N         N         0.66813   0.69420   0.27849   -0.245944           
         N         N         0.16925   0.19243   0.27451   -0.241886           
         N         N         0.33716   0.30468   0.24341   -0.237866           
         N         N         0.83360   0.80788   0.26672   -0.250949           
         N         N         0.00141   0.93973   0.25070   -0.354561           
         N         N         0.50203   0.44103   0.26037   -0.356076           
         N         N         0.00021   0.05983   0.23702   -0.357168           
         N         N         0.50050   0.56157   0.24803   -0.357619           
         C         C         0.27309   0.71717   0.76051   -0.123027           
         C         C         0.77748   0.22060   0.75620   -0.116386           
         C         C         0.72533   0.28172   0.74227   -0.120662           
         C         C         0.22227   0.77908   0.76961   -0.118727           
         C         C         0.72177   0.72059   0.74653   -0.119602           
         C         C         0.22088   0.22313   0.73332   -0.117372           
         C         C         0.27454   0.28195   0.73706   -0.121606           
         C         C         0.77477   0.78089   0.75193   -0.118726           
         C         C         0.21253   0.73872   0.77201   0.150871  
         C         C         0.71655   0.24128   0.75170   0.153960  
         C         C         0.78633   0.26123   0.75242   0.150492  
         C         C         0.28271   0.75740   0.75791   0.154576  
         C         C         0.78303   0.74023   0.74654   0.151777  
         C         C         0.28236   0.24127   0.72967   0.154321  
         C         C         0.21313   0.26379   0.74130   0.149843  
         C         C         0.71349   0.76132   0.75408   0.152236  
         C         C         0.23749   0.70897   0.76736   0.128824  
         C         C         0.74183   0.21194   0.75503   0.123928  
         C         C         0.76099   0.29030   0.74193   0.126702  
         C         C         0.25794   0.78728   0.76275   0.125137  
         C         C         0.75730   0.71134   0.74278   0.124152  
         C         C         0.25611   0.21310   0.72692   0.125245  
         C         C         0.23928   0.29219   0.74139   0.125999  
         C         C         0.73925   0.79028   0.75412   0.125046  
         C         C         0.96988   0.91550   0.75237   0.179227  
         C         C         0.47053   0.41559   0.74769   0.179703  
         C         C         0.03005   0.08370   0.74959   0.180813  
         C         C         0.52684   0.58398   0.75244   0.179327  
         C         C         0.02697   0.91474   0.75215   0.179956  
         C         C         0.52764   0.41521   0.73641   0.180297  
         C         C         0.97294   0.08490   0.75456   0.180217  
         C         C         0.46971   0.58408   0.74174   0.178793  
         C         C         0.98040   0.87436   0.75545   -0.180781           
         C         C         0.48120   0.37456   0.74681   -0.177854           
         C         C         0.01990   0.12485   0.75621   -0.178635           
         C         C         0.51593   0.62494   0.75180   -0.177137           
         C         C         0.01571   0.87390   0.75535   -0.177860           
         C         C         0.51646   0.37432   0.73965   -0.176621           
         C         C         0.98459   0.12563   0.75908   -0.176886           
         C         C         0.48066   0.62502   0.74441   -0.176777           
         H         H         0.96297   0.84924   0.75628   0.132608  
         H         H         0.46352   0.34966   0.75139   0.132591  
         H         H         0.03759   0.14978   0.75693   0.133082  
         H         H         0.53346   0.64995   0.75530   0.132430  
         H         H         0.03286   0.84851   0.75478   0.133052  
         H         H         0.53361   0.34896   0.73777   0.132731  
         H         H         0.96782   0.15131   0.76297   0.132155  
         H         H         0.46338   0.65027   0.74168   0.133199  
         N         N         0.44621   0.49972   0.74057   -0.354184           
         N         N         0.94777   0.00062   0.74111   -0.355087           
         N         N         0.55111   0.49978   0.73845   -0.354641           
         N         N         0.05208   -0.00096  0.73946   -0.355162           
         C         C         0.42492   0.46708   0.75039   0.177658  
         C         C         0.92568   0.96828   0.74119   0.180105  
         C         C         0.57244   0.53248   0.74775   0.179512  
         C         C         0.07421   0.03121   0.73421   0.180741  
         C         C         0.57270   0.46710   0.73683   0.178213  
         C         C         0.07283   0.96577   0.73771   0.177634  
         C         C         0.42466   0.53226   0.74004   0.178219  
         C         C         0.92691   0.03391   0.74345   0.179347  
         C         C         0.38912   0.47940   0.75561   -0.178578           
         C         C         0.89020   0.98167   0.74144   -0.181764           
         C         C         0.60824   0.52007   0.75112   -0.182178           
         C         C         0.10954   0.01772   0.72531   -0.181385           
         C         C         0.60839   0.47969   0.74319   -0.179603           
         C         C         0.10869   0.97721   0.72701   -0.178555           
         C         C         0.38902   0.51980   0.74904   -0.179856           
         C         C         0.89093   0.02218   0.74312   -0.181029           
         H         H         0.36716   0.45968   0.76417   0.129242  
         H         H         0.86786   0.96226   0.74250   0.128532  
         H         H         0.63017   0.53978   0.76009   0.130036  
         H         H         0.13186   0.03699   0.71891   0.129202  
         H         H         0.63042   0.45988   0.74354   0.129387  
         H         H         0.13004   0.95653   0.72131   0.127956  
         H         H         0.36717   0.53977   0.75356   0.129011  
         H         H         0.86933   0.04261   0.74591   0.127934  
         C         C         0.93545   0.92827   0.74719   -0.072411           
         C         C         0.43598   0.42767   0.75412   -0.071866           
         C         C         0.06441   0.07103   0.74128   -0.075652           
         C         C         0.56154   0.57199   0.75422   -0.071760           
         C         C         0.06160   0.92648   0.74720   -0.071123           
         C         C         0.56234   0.42730   0.73421   -0.069633           
         C         C         0.93812   0.07339   0.75041   -0.070616           
         C         C         0.43513   0.57190   0.73668   -0.070839           
         C         C         0.90790   0.89729   0.75323   0.080998  
         C         C         0.40850   0.39664   0.75459   0.069485  
         C         C         0.09201   0.10206   0.74660   0.080691  
         C         C         0.58892   0.60326   0.75896   0.075717  
         C         C         0.08879   0.89522   0.75139   0.072401  
         C         C         0.59023   0.39650   0.73584   0.066340  
         C         C         0.91118   0.10500   0.75344   0.073026  
         C         C         0.40700   0.60217   0.73474   0.071562  
         C         C         0.39377   0.38096   0.84418   -0.127390           
         C         C         0.90277   0.87646   0.84578   -0.129944           
         C         C         0.59846   0.62111   0.85197   -0.129074           
         C         C         0.10402   0.11437   0.84312   -0.129408           
         C         C         0.60116   0.37767   0.64592   -0.124162           
         C         C         0.09851   0.87511   0.66205   -0.130960           
         C         C         0.39131   0.61388   0.64233   -0.124059           
         C         C         0.89102   0.11366   0.66661   -0.125152           
         C         C         0.60577   0.61541   0.66886   -0.129194           
         C         C         0.10533   0.12074   0.65877   -0.126551           
         C         C         0.39621   0.38364   0.65931   -0.122821           
         C         C         0.88716   0.88737   0.66874   -0.131111           
         C         C         0.39460   0.61809   0.82668   -0.125690           
         C         C         0.90513   0.12669   0.84342   -0.129506           
         C         C         0.60695   0.38651   0.82810   -0.123774           
         C         C         0.10561   0.88610   0.84379   -0.125631           
         H         H         0.91883   0.88389   0.91148   0.113746  
         H         H         0.40269   0.39124   0.91872   0.112432  
         H         H         0.09414   0.09947   0.91138   0.113465  
         H         H         0.58569   0.61198   0.92263   0.111049  
         H         H         0.08556   0.88244   0.59025   0.116418  
         H         H         0.58885   0.38557   0.57363   0.107941  
         H         H         0.89565   0.09726   0.59629   0.114805  
         H         H         0.39979   0.60067   0.57065   0.110621  
         H         H         0.09600   0.11186   0.58349   0.110412  
         H         H         0.59800   0.60224   0.59637   0.115960  
         H         H         0.89155   0.90234   0.59571   0.117008  
         H         H         0.40714   0.39671   0.59005   0.110827  
         H         H         0.92019   0.11978   0.91173   0.114398  
         H         H         0.40636   0.60838   0.89836   0.112041  
         H         H         0.09792   0.90143   0.91348   0.113821  
         H         H         0.59933   0.40143   0.89832   0.114295  
         C         C         0.87801   0.84665   0.85389   -0.164977           
         C         C         0.36749   0.35245   0.83871   -0.189688           
         C         C         0.12774   0.14523   0.85223   -0.165035           
         C         C         0.62361   0.65071   0.85459   -0.171905           
         C         C         0.12403   0.84603   0.66485   -0.175890           
         C         C         0.62747   0.34926   0.64751   -0.187149           
         C         C         0.86516   0.14254   0.66942   -0.190971           
         C         C         0.36528   0.64242   0.64157   -0.178340           
         C         C         0.13013   0.15077   0.66706   -0.184754           
         C         C         0.63178   0.64420   0.67090   -0.187821           
         C         C         0.86144   0.85837   0.67689   -0.184347           
         C         C         0.37073   0.35470   0.65292   -0.180191           
         C         C         0.88010   0.15629   0.84646   -0.174652           
         C         C         0.36762   0.64560   0.82719   -0.188749           
         C         C         0.13196   0.85774   0.84701   -0.189293           
         C         C         0.63306   0.35802   0.83102   -0.187426           
         H         H         0.87468   0.83019   0.92519   0.120971  
         H         H         0.35592   0.34019   0.90804   0.114735  
         H         H         0.13672   0.15492   0.92704   0.114897  
         H         H         0.63064   0.66524   0.92597   0.118081  
         H         H         0.13134   0.83009   0.59592   0.118417  
         H         H         0.63558   0.33470   0.57729   0.113419  
         H         H         0.85009   0.14956   0.60120   0.116724  
         H         H         0.35350   0.65258   0.57048   0.111583  
         H         H         0.14021   0.16545   0.59886   0.112893  
         H         H         0.64423   0.65403   0.60037   0.114668  
         H         H         0.84606   0.85044   0.61006   0.116083  
         H         H         0.36146   0.34422   0.57923   0.112763  
         H         H         0.87558   0.17323   0.91588   0.116786  
         H         H         0.35829   0.65795   0.89891   0.116035  
         H         H         0.14498   0.85075   0.91881   0.113346  
         H         H         0.64565   0.35011   0.90287   0.117594  
         C         C         0.85636   0.83781   0.77011   0.198404  
         C         C         0.35628   0.33870   0.74279   0.199011  
         C         C         0.14140   0.16355   0.76398   0.198653  
         C         C         0.64089   0.66215   0.76419   0.199946  
         C         C         0.14120   0.83731   0.75745   0.198739  
         C         C         0.64359   0.33911   0.74051   0.199752  
         C         C         0.85932   0.16396   0.76005   0.202461  
         C         C         0.35331   0.65866   0.73390   0.197786  
         F         F         0.17905   0.72811   0.77845   -0.089566           
         F         F         0.68339   0.22986   0.75679   -0.088113           
         F         F         0.81936   0.27359   0.75735   -0.089647           
         F         F         0.31610   0.76797   0.75245   -0.089599           
         F         F         0.81612   0.72819   0.74242   -0.090731           
         F         F         0.31515   0.22813   0.72743   -0.090065           
         F         F         0.18014   0.27584   0.74712   -0.087955           
         F         F         0.68055   0.77373   0.76235   -0.090704           
         Cu        Cu        0.49868   0.49978   0.74031   0.564565  
         Cu        Cu        -0.00011  -0.00020  0.74563   0.562105  
         C         C         0.29806   0.68448   0.75869   0.099519  
         H         H         0.28829   0.65522   0.78160   0.087822  
         C         C         0.80263   0.18811   0.75749   0.100375  
         H         H         0.79169   0.15806   0.75294   0.085613  
         C         C         0.69993   0.31394   0.73327   0.102351  
         H         H         0.71058   0.34338   0.71519   0.088631  
         C         C         0.19744   0.81194   0.77107   0.098759  
         H         H         0.20854   0.84168   0.77966   0.086986  
         C         C         0.69644   0.68814   0.74386   0.099937  
         H         H         0.70661   0.65893   0.72204   0.085491  
         C         C         0.19457   0.19178   0.73029   0.098524  
         H         H         0.20208   0.16474   0.68942   0.085097  
         C         C         0.30025   0.31369   0.74440   0.101636  
         H         H         0.28990   0.34344   0.75894   0.086093  
         C         C         0.80068   0.81270   0.75093   0.098226  
         H         H         0.79129   0.84169   0.72418   0.081991  
         F         F         0.22725   0.67057   0.76812   -0.103256           
         F         F         0.73104   0.17366   0.75781   -0.104338           
         F         F         0.77204   0.32831   0.73293   -0.104013           
         F         F         0.26902   0.82541   0.75774   -0.103749           
         F         F         0.76731   0.67279   0.73732   -0.105400           
         F         F         0.26561   0.17452   0.72229   -0.102703           
         F         F         0.23073   0.33115   0.74751   -0.103965           
         F         F         0.72927   0.82890   0.75757   -0.104930           
         N         N         0.32955   0.69004   0.72997   -0.231654           
         N         N         0.83522   0.19487   0.76506   -0.235518           
         N         N         0.66745   0.30774   0.74666   -0.229191           
         N         N         0.16490   0.80584   0.75821   -0.233005           
         N         N         0.66467   0.69348   0.76976   -0.241255           
         N         N         0.16511   0.19491   0.77563   -0.245272           
         N         N         0.33273   0.30713   0.73366   -0.234395           
         N         N         0.83205   0.80720   0.78151   -0.250213           
         N         N         0.99869   0.93974   0.75080   -0.356077           
         N         N         0.49915   0.44005   0.74082   -0.358520           
         N         N         0.00105   0.05968   0.74997   -0.356177           
         N         N         0.49827   0.55939   0.74706   -0.357587 

