
##########################################################################
#               Crystallographic Information Format file
#               Produced by PyCifRW module
#
#  This is a CIF file.  CIF has been adopted by the International
#  Union of Crystallography as the standard for data archiving and
#  transmission.
#
#  For information on this file format, follow the CIF links at
#  http://www.iucr.org
##########################################################################

data_image0

_cell_length_a                          38.5308
_cell_length_b                          33.6665
_cell_length_c                          9.87309
_cell_angle_alpha                       76.1457
_cell_angle_beta                        92.7529
_cell_angle_gamma                       90.0191
_symmetry_space_group_name_H-M          'P 1'
_space_group_name_Hall                  'P 1'
loop_
  _atom_site_type_symbol
  _atom_site_label
  _atom_site_fract_x
  _atom_site_fract_y
  _atom_site_fract_z
  _atom_site_charge
         C         C         0.27750   0.71910   0.25392   0.057090  
         C         C         0.78013   0.22547   0.22444   0.059281  
         C         C         0.72684   0.28033   0.24796   0.058268  
         C         C         0.22452   0.77682   0.25239   0.059968  
         C         C         0.72312   0.72605   0.23637   0.060273  
         C         C         0.22709   0.22089   0.23201   0.058187  
         C         C         0.28030   0.27715   0.25003   0.055922  
         C         C         0.77527   0.78454   0.23767   0.059674  
         C         C         0.21699   0.74115   0.20588   -0.109862           
         C         C         0.72033   0.24991   0.17395   -0.113183           
         C         C         0.78673   0.25610   0.29762   -0.111420           
         C         C         0.28530   0.75557   0.29476   -0.107868           
         C         C         0.78411   0.74472   0.22808   -0.107123           
         C         C         0.28648   0.24401   0.18996   -0.111181           
         C         C         0.22089   0.25434   0.29044   -0.110213           
         C         C         0.71426   0.76590   0.24536   -0.106228           
         C         C         0.24316   0.71261   0.20803   -0.131616           
         C         C         0.74665   0.22299   0.16239   -0.132454           
         C         C         0.76047   0.28320   0.30826   -0.132757           
         C         C         0.25903   0.78381   0.29482   -0.132322           
         C         C         0.75830   0.71611   0.22613   -0.131287           
         C         C         0.26025   0.21615   0.18191   -0.131311           
         C         C         0.24717   0.28189   0.29959   -0.133543           
         C         C         0.74000   0.79477   0.24435   -0.132378           
         C         C         0.97315   0.91479   0.25687   0.183138  
         C         C         0.47474   0.41492   0.26071   0.186685  
         C         C         0.03056   0.08535   0.23898   0.186043  
         C         C         0.53049   0.58641   0.23073   0.184186  
         C         C         0.03044   0.91490   0.24938   0.184874  
         C         C         0.53213   0.41531   0.26517   0.184610  
         C         C         0.97321   0.08509   0.24307   0.185013  
         C         C         0.47313   0.58571   0.23464   0.183731  
         C         C         0.98399   0.87340   0.26389   -0.181045           
         C         C         0.48634   0.37286   0.29083   -0.182686           
         C         C         0.01917   0.12717   0.22164   -0.185269           
         C         C         0.51881   0.62847   0.20236   -0.183255           
         C         C         0.01923   0.87324   0.26272   -0.182184           
         C         C         0.52167   0.37315   0.29371   -0.184744           
         C         C         0.98389   0.12699   0.22508   -0.180685           
         C         C         0.48343   0.62798   0.20542   -0.184088           
         H         H         0.96666   0.84776   0.26891   0.128657  
         H         H         0.46956   0.34646   0.31046   0.129666  
         H         H         0.03613   0.15338   0.20681   0.128659  
         H         H         0.53544   0.65493   0.18166   0.130611  
         H         H         0.03626   0.84711   0.27077   0.127161  
         H         H         0.53936   0.34717   0.31491   0.129982  
         H         H         0.96646   0.15288   0.21545   0.131002  
         H         H         0.46579   0.65392   0.18691   0.130826  
         N         N         0.44989   0.50013   0.24713   -0.384548           
         N         N         0.94929   0.00016   0.24716   -0.380172           
         N         N         0.55549   0.50098   0.24816   -0.382437           
         N         N         0.05440   0.00025   0.24152   -0.383685           
         C         C         0.42849   0.46742   0.24148   0.190072  
         C         C         0.92782   0.96683   0.25545   0.184935  
         C         C         0.57683   0.53402   0.24911   0.187904  
         C         C         0.07608   0.03297   0.24401   0.188420  
         C         C         0.57732   0.46823   0.24934   0.188152  
         C         C         0.07588   0.96765   0.23668   0.188755  
         C         C         0.42811   0.53250   0.25177   0.188063  
         C         C         0.92784   0.03262   0.25224   0.184781  
         C         C         0.39262   0.47998   0.23933   -0.181948           
         C         C         0.89225   0.97857   0.26692   -0.183282           
         C         C         0.61280   0.52140   0.25405   -0.183003           
         C         C         0.11183   0.02023   0.24348   -0.183500           
         C         C         0.61303   0.48122   0.24830   -0.181698           
         C         C         0.11162   0.98051   0.23342   -0.181900           
         C         C         0.39245   0.51932   0.25276   -0.179503           
         C         C         0.89231   0.01931   0.26534   -0.182521           
         H         H         0.37032   0.46118   0.22959   0.126300  
         H         H         0.87041   0.95816   0.27607   0.126137  
         H         H         0.63498   0.54050   0.26112   0.126461  
         H         H         0.13422   0.03909   0.25020   0.127051  
         H         H         0.63531   0.46219   0.24457   0.126361  
         H         H         0.13371   0.96156   0.22565   0.125271  
         H         H         0.37006   0.53776   0.26133   0.125985  
         H         H         0.87065   0.03859   0.27548   0.126799  
         C         C         0.93839   0.92678   0.25924   -0.062458           
         C         C         0.43956   0.42720   0.24720   -0.070456           
         C         C         0.06564   0.07306   0.24305   -0.068514           
         C         C         0.56570   0.57430   0.24147   -0.068590           
         C         C         0.06531   0.92741   0.23976   -0.073075           
         C         C         0.56698   0.42786   0.25602   -0.067835           
         C         C         0.93834   0.07272   0.24893   -0.065124           
         C         C         0.43841   0.57280   0.24801   -0.065692           
         C         C         0.91099   0.89543   0.26394   0.071089  
         C         C         0.41327   0.39518   0.24444   0.075185  
         C         C         0.09266   0.10459   0.24392   0.071750  
         C         C         0.59206   0.60614   0.24580   0.071820  
         C         C         0.09190   0.89573   0.23696   0.075483  
         C         C         0.59363   0.39634   0.25238   0.072354  
         C         C         0.91140   0.10388   0.25367   0.074097  
         C         C         0.41155   0.60383   0.25541   0.071191  
         C         C         0.38501   0.38982   0.33247   -0.127657           
         C         C         0.90946   0.86074   0.37611   -0.127219           
         C         C         0.58910   0.63241   0.33672   -0.125660           
         C         C         0.09196   0.12966   0.33958   -0.126075           
         C         C         0.58924   0.37128   0.15721   -0.126369           
         C         C         0.08715   0.86874   0.14829   -0.127877           
         C         C         0.38135   0.60990   0.16635   -0.124569           
         C         C         0.88413   0.11328   0.14935   -0.127756           
         C         C         0.62013   0.61243   0.15707   -0.125914           
         C         C         0.11906   0.11152   0.14706   -0.123921           
         C         C         0.41631   0.36774   0.15771   -0.126366           
         C         C         0.88592   0.89989   0.15325   -0.126604           
         C         C         0.41603   0.62917   0.34973   -0.126484           
         C         C         0.91345   0.12551   0.36042   -0.130406           
         C         C         0.62318   0.38920   0.34511   -0.124377           
         C         C         0.12182   0.88976   0.32779   -0.123747           
         H         H         0.92818   0.85720   0.46440   0.111608  
         H         H         0.38327   0.40860   0.40751   0.109590  
         H         H         0.07197   0.12466   0.41621   0.108049  
         H         H         0.56805   0.62772   0.40833   0.110625  
         H         H         0.06461   0.87301   0.07530   0.112323  
         H         H         0.56686   0.37638   0.08328   0.111172  
         H         H         0.88304   0.09738   0.06451   0.107439  
         H         H         0.37831   0.59264   0.08667   0.108532  
         H         H         0.11873   0.09477   0.06569   0.108183  
         H         H         0.62207   0.59439   0.08006   0.109085  
         H         H         0.88757   0.92610   0.06470   0.099472  
         H         H         0.43757   0.37128   0.08719   0.110357  
         H         H         0.93418   0.11771   0.44246   0.106648  
         H         H         0.43876   0.62453   0.42201   0.109043  
         H         H         0.12483   0.90813   0.40423   0.109395  
         H         H         0.62607   0.40639   0.42505   0.109791  
         C         C         0.88426   0.83120   0.37592   -0.168643           
         C         C         0.36019   0.36012   0.32978   -0.179791           
         C         C         0.11644   0.16017   0.33864   -0.160222           
         C         C         0.61269   0.66361   0.33768   -0.163808           
         C         C         0.11091   0.83748   0.15078   -0.154991           
         C         C         0.61337   0.34083   0.15445   -0.156809           
         C         C         0.85973   0.14387   0.14922   -0.181513           
         C         C         0.35631   0.63908   0.17285   -0.187330           
         C         C         0.14447   0.14081   0.14923   -0.183879           
         C         C         0.64435   0.64279   0.16011   -0.184919           
         C         C         0.86003   0.87104   0.15401   -0.190523           
         C         C         0.39211   0.33708   0.15775   -0.156241           
         C         C         0.88908   0.15608   0.36121   -0.158175           
         C         C         0.39156   0.65913   0.35419   -0.158730           
         C         C         0.14628   0.85951   0.32764   -0.180224           
         C         C         0.64756   0.35913   0.34163   -0.181078           
         H         H         0.88304   0.80427   0.46212   0.124316  
         H         H         0.33938   0.35668   0.40239   0.111696  
         H         H         0.11576   0.17970   0.41190   0.121754  
         H         H         0.61017   0.68345   0.40893   0.127336  
         H         H         0.10698   0.81704   0.08123   0.123391  
         H         H         0.61019   0.32197   0.07960   0.122150  
         H         H         0.84020   0.15231   0.06263   0.110050  
         H         H         0.33418   0.64457   0.09799   0.113584  
         H         H         0.16386   0.14643   0.07060   0.110685  
         H         H         0.66467   0.64801   0.08514   0.110894  
         H         H         0.84166   0.87412   0.06497   0.113441  
         H         H         0.39443   0.31649   0.08894   0.125852  
         H         H         0.89020   0.17285   0.44356   0.120360  
         H         H         0.39500   0.67819   0.42831   0.123117  
         H         H         0.16812   0.85486   0.40411   0.112031  
         H         H         0.66889   0.35282   0.42017   0.109988  
         C         C         0.85885   0.83620   0.26571   0.199468  
         C         C         0.36276   0.33363   0.23920   0.196130  
         C         C         0.14397   0.16514   0.24728   0.198530  
         C         C         0.64127   0.66881   0.25178   0.198815  
         C         C         0.14167   0.83328   0.23615   0.196640  
         C         C         0.64364   0.33521   0.24262   0.198724  
         C         C         0.86164   0.16526   0.25752   0.197410  
         C         C         0.36075   0.66382   0.26921   0.201191  
         H         H         0.19046   0.73672   0.16944   0.118528  
         H         H         0.69445   0.24805   0.12689   0.119365  
         H         H         0.81253   0.25732   0.34643   0.121133  
         H         H         0.31194   0.76062   0.32725   0.119048  
         H         H         0.81132   0.73723   0.22181   0.117790  
         H         H         0.31202   0.24130   0.15058   0.120237  
         H         H         0.19538   0.25780   0.32924   0.117495  
         H         H         0.68701   0.77298   0.25344   0.117861  
         Cu        Cu        0.50266   0.50061   0.24658   0.659558  
         Cu        Cu        0.00188   0.00009   0.24688   0.656966  
         C         C         0.30401   0.68808   0.25596   0.065437  
         H         H         0.29463   0.65901   0.23606   0.064525  
         C         C         0.80639   0.19513   0.21651   0.063715  
         H         H         0.79722   0.17031   0.16824   0.065941  
         C         C         0.70012   0.30923   0.26373   0.066058  
         H         H         0.70915   0.33438   0.30944   0.064117  
         C         C         0.19793   0.80696   0.25892   0.064524  
         H         H         0.20731   0.83352   0.29654   0.063694  
         C         C         0.69701   0.69470   0.23794   0.067512  
         H         H         0.70659   0.66544   0.22196   0.063348  
         C         C         0.20044   0.19047   0.22527   0.064114  
         H         H         0.20922   0.16287   0.19479   0.067073  
         C         C         0.30698   0.30687   0.26184   0.064608  
         H         H         0.29841   0.33249   0.30391   0.066457  
         C         C         0.80201   0.81508   0.24235   0.070199  
         H         H         0.79281   0.84704   0.22536   0.063977  
         H         H         0.23750   0.68478   0.17335   0.108013  
         H         H         0.74169   0.19949   0.10498   0.107013  
         H         H         0.76543   0.30666   0.36591   0.107362  
         H         H         0.26478   0.81174   0.32845   0.109780  
         H         H         0.76497   0.68539   0.21753   0.108178  
         H         H         0.26487   0.19054   0.13534   0.109420  
         H         H         0.24246   0.30732   0.34701   0.109669  
         H         H         0.73312   0.82564   0.25073   0.108153  
         N         N         0.33671   0.69383   0.28091   -0.284026           
         N         N         0.83806   0.19601   0.26835   -0.286226           
         N         N         0.66788   0.30610   0.22469   -0.291153           
         N         N         0.16561   0.80311   0.22374   -0.290425           
         N         N         0.66470   0.70010   0.25956   -0.284819           
         N         N         0.16863   0.19500   0.25758   -0.286310           
         N         N         0.33840   0.30383   0.22408   -0.293515           
         N         N         0.83422   0.80533   0.26868   -0.275417           
         N         N         0.00188   0.93987   0.24849   -0.381383           
         N         N         0.50312   0.44048   0.24988   -0.382820           
         N         N         0.00200   0.06001   0.24930   -0.382897           
         N         N         0.50215   0.56074   0.24478   -0.382394           
         C         C         0.27475   0.72026   0.75131   0.058725  
         C         C         0.77436   0.22042   0.75105   0.059698  
         C         C         0.72247   0.27986   0.74876   0.057764  
         C         C         0.22234   0.77824   0.75532   0.059642  
         C         C         0.72098   0.72358   0.75199   0.060989  
         C         C         0.22188   0.22017   0.75590   0.057673  
         C         C         0.27425   0.27739   0.77333   0.059315  
         C         C         0.77357   0.78189   0.75250   0.058909  
         C         C         0.21452   0.74332   0.70479   -0.111738           
         C         C         0.71342   0.24176   0.72212   -0.107744           
         C         C         0.78340   0.25877   0.77585   -0.108243           
         C         C         0.28268   0.75561   0.79903   -0.109048           
         C         C         0.78220   0.74172   0.74633   -0.104238           
         C         C         0.28076   0.24460   0.71197   -0.109969           
         C         C         0.21528   0.25319   0.81605   -0.109505           
         C         C         0.71239   0.76374   0.75872   -0.106534           
         C         C         0.24032   0.71457   0.70426   -0.133223           
         C         C         0.73899   0.21257   0.72416   -0.134016           
         C         C         0.75780   0.28776   0.77549   -0.132397           
         C         C         0.25677   0.78393   0.80162   -0.132995           
         C         C         0.75625   0.71322   0.74530   -0.132257           
         C         C         0.25499   0.21632   0.70425   -0.134262           
         C         C         0.24123   0.28119   0.82541   -0.130560           
         C         C         0.73833   0.79241   0.75797   -0.130323           
         C         C         0.96971   0.91452   0.75510   0.183297  
         C         C         0.46947   0.41462   0.76508   0.186150  
         C         C         0.02674   0.08506   0.71280   0.185228  
         C         C         0.52719   0.58590   0.73188   0.186032  
         C         C         0.02685   0.91500   0.73923   0.186046  
         C         C         0.52684   0.41466   0.76109   0.184176  
         C         C         0.96944   0.08474   0.71892   0.180852  
         C         C         0.46985   0.58594   0.73411   0.184304  
         C         C         0.97984   0.87464   0.74001   -0.181513           
         C         C         0.48077   0.37256   0.78977   -0.184866           
         C         C         0.01495   0.12678   0.66092   -0.185645           
         C         C         0.51580   0.62810   0.70049   -0.183319           
         C         C         0.01510   0.87460   0.73365   -0.177840           
         C         C         0.51602   0.37261   0.78667   -0.182821           
         C         C         0.97946   0.12657   0.66336   -0.184817           
         C         C         0.48046   0.62811   0.70264   -0.182977           
         H         H         0.96222   0.84969   0.73805   0.128090  
         H         H         0.46377   0.34632   0.81056   0.130236  
         H         H         0.03174   0.15259   0.62461   0.131720  
         H         H         0.53275   0.65432   0.67752   0.130862  
         H         H         0.03176   0.84930   0.72763   0.128581  
         H         H         0.53334   0.34628   0.80432   0.129963  
         H         H         0.96171   0.15233   0.62885   0.130336  
         H         H         0.46295   0.65426   0.68248   0.130396  
         N         N         0.44580   0.50015   0.75304   -0.383826           
         N         N         0.94701   0.99817   0.77076   -0.380548           
         N         N         0.55102   0.50015   0.74981   -0.384906           
         N         N         0.05101   0.99898   0.74939   -0.382175           
         C         C         0.42396   0.46753   0.75156   0.190286  
         C         C         0.92604   0.96411   0.79222   0.182286  
         C         C         0.57281   0.53278   0.75245   0.189653  
         C         C         0.07245   0.03139   0.75835   0.186312  
         C         C         0.57240   0.46737   0.74644   0.188451  
         C         C         0.07264   0.96590   0.75301   0.190834  
         C         C         0.42446   0.53307   0.75513   0.189204  
         C         C         0.92655   0.03002   0.78939   0.186005  
         C         C         0.38823   0.48067   0.74963   -0.183875           
         C         C         0.89232   0.97433   0.83205   -0.184680           
         C         C         0.60852   0.51974   0.75442   -0.182350           
         C         C         0.10810   0.01748   0.77690   -0.179037           
         C         C         0.60823   0.47994   0.74465   -0.180539           
         C         C         0.10838   0.97781   0.76701   -0.181213           
         C         C         0.38865   0.52060   0.75808   -0.183484           
         C         C         0.89300   0.01474   0.83470   -0.178926           
         H         H         0.36576   0.46193   0.74410   0.127224  
         H         H         0.87108   0.95313   0.85470   0.126950  
         H         H         0.63092   0.53851   0.76160   0.126491  
         H         H         0.13009   0.03594   0.79370   0.126049  
         H         H         0.63032   0.46090   0.73840   0.126142  
         H         H         0.13089   0.95852   0.76895   0.127323  
         H         H         0.36679   0.53990   0.76492   0.127299  
         H         H         0.87286   0.03257   0.86580   0.126267  
         C         C         0.93565   0.92532   0.77681   -0.061476           
         C         C         0.43437   0.42710   0.75747   -0.070791           
         C         C         0.06187   0.07248   0.73728   -0.067769           
         C         C         0.56230   0.57332   0.74502   -0.067549           
         C         C         0.06192   0.92678   0.74172   -0.066793           
         C         C         0.56173   0.42714   0.75071   -0.066916           
         C         C         0.93564   0.07164   0.75541   -0.069373           
         C         C         0.43511   0.57338   0.74764   -0.066145           
         C         C         0.90824   0.89403   0.77966   0.068593  
         C         C         0.40745   0.39559   0.75649   0.072885  
         C         C         0.08821   0.10442   0.73984   0.072579  
         C         C         0.58887   0.60497   0.75013   0.069595  
         C         C         0.08883   0.89580   0.73599   0.074273  
         C         C         0.58836   0.39568   0.74630   0.073920  
         C         C         0.90866   0.10282   0.75699   0.075144  
         C         C         0.40854   0.60490   0.75195   0.071728  
         C         C         0.37957   0.39052   0.84655   -0.123053           
         C         C         0.90950   0.85638   0.88001   -0.122695           
         C         C         0.58542   0.63191   0.83868   -0.125838           
         C         C         0.08295   0.13406   0.81733   -0.127005           
         C         C         0.58397   0.36983   0.65369   -0.127907           
         C         C         0.08658   0.87284   0.63392   -0.128678           
         C         C         0.37866   0.61127   0.66117   -0.122346           
         C         C         0.87511   0.10102   0.69462   -0.120606           
         C         C         0.61753   0.61059   0.66431   -0.125401           
         C         C         0.11869   0.10695   0.66439   -0.123074           
         C         C         0.40938   0.36876   0.66707   -0.127156           
         C         C         0.88116   0.90102   0.67577   -0.125616           
         C         C         0.41305   0.63042   0.84556   -0.128414           
         C         C         0.91565   0.13558   0.81994   -0.126546           
         C         C         0.61830   0.38948   0.83676   -0.124819           
         C         C         0.11665   0.88686   0.83677   -0.127765           
         H         H         0.93011   0.85071   0.96193   0.115099  
         H         H         0.37874   0.40888   0.92309   0.109344  
         H         H         0.05961   0.13249   0.87656   0.115334  
         H         H         0.56397   0.62778   0.90853   0.111347  
         H         H         0.06569   0.87960   0.55342   0.109444  
         H         H         0.56112   0.37413   0.58205   0.109004  
         H         H         0.86977   0.07707   0.64000   0.113097  
         H         H         0.37603   0.59395   0.58157   0.108750  
         H         H         0.12193   0.08660   0.59515   0.111486  
         H         H         0.61970   0.59229   0.58825   0.109380  
         H         H         0.88094   0.92948   0.59484   0.112981  
         H         H         0.43043   0.37199   0.59556   0.112416  
         H         H         0.94098   0.13723   0.87197   0.115749  
         H         H         0.43568   0.62599   0.91807   0.111046  
         H         H         0.11754   0.90215   0.92194   0.106917  
         H         H         0.62114   0.40680   0.91618   0.109133  
         C         C         0.88477   0.82656   0.87598   -0.167807           
         C         C         0.35433   0.36118   0.84479   -0.180240           
         C         C         0.10767   0.16392   0.82295   -0.152079           
         C         C         0.60914   0.66301   0.83995   -0.157977           
         C         C         0.11074   0.84220   0.63420   -0.158256           
         C         C         0.60841   0.33977   0.65079   -0.155583           
         C         C         0.84955   0.12991   0.69733   -0.182299           
         C         C         0.35383   0.64072   0.66612   -0.183536           
         C         C         0.14366   0.13624   0.67147   -0.180832           
         C         C         0.64211   0.64046   0.66927   -0.187921           
         C         C         0.85587   0.87160   0.67281   -0.186610           
         C         C         0.38465   0.33866   0.66710   -0.158895           
         C         C         0.89039   0.16501   0.82012   -0.153092           
         C         C         0.38873   0.66065   0.84870   -0.159330           
         C         C         0.14173   0.85751   0.83403   -0.181812           
         C         C         0.64326   0.36015   0.83211   -0.182158           
         H         H         0.88568   0.79753   0.95377   0.125361  
         H         H         0.33412   0.35731   0.92006   0.112265  
         H         H         0.10391   0.18646   0.88430   0.125296  
         H         H         0.60624   0.68362   0.90855   0.124440  
         H         H         0.10873   0.82432   0.55605   0.124382  
         H         H         0.60485   0.32047   0.57734   0.122507  
         H         H         0.82435   0.12828   0.64472   0.113556  
         H         H         0.33191   0.64642   0.59003   0.110070  
         H         H         0.16606   0.13857   0.60684   0.112922  
         H         H         0.66314   0.64488   0.59755   0.114909  
         H         H         0.83580   0.87672   0.58885   0.113102  
         H         H         0.38631   0.31836   0.59687   0.121972  
         H         H         0.89577   0.18992   0.87047   0.124030  
         H         H         0.39232   0.67990   0.92224   0.123968  
         H         H         0.16215   0.85021   0.91652   0.111951  
         H         H         0.66505   0.35490   0.90849   0.112582  
         C         C         0.85723   0.83400   0.77371   0.199016  
         C         C         0.35603   0.33508   0.75261   0.197899  
         C         C         0.13906   0.16460   0.75432   0.197642  
         C         C         0.63855   0.66709   0.75851   0.199566  
         C         C         0.13951   0.83505   0.73039   0.196325  
         C         C         0.63918   0.33523   0.73629   0.196581  
         C         C         0.85668   0.16245   0.76157   0.202532  
         C         C         0.35800   0.66526   0.76312   0.199357  
         H         H         0.18798   0.73985   0.66721   0.118474  
         H         H         0.68620   0.23605   0.70096   0.118126  
         H         H         0.81069   0.26484   0.79581   0.118217  
         H         H         0.30928   0.75984   0.83449   0.118006  
         H         H         0.80943   0.73387   0.74257   0.117419  
         H         H         0.30617   0.24226   0.67071   0.117900  
         H         H         0.18966   0.25588   0.85479   0.117831  
         H         H         0.68520   0.77151   0.76466   0.118252  
         Cu        Cu        0.49839   0.50008   0.75200   0.660096  
         Cu        Cu        0.99895   0.99875   0.75393   0.660357  
         C         C         0.30122   0.68966   0.74829   0.065784  
         H         H         0.29180   0.66146   0.72152   0.063907  
         C         C         0.79999   0.18850   0.75145   0.062588  
         H         H         0.78912   0.15943   0.73713   0.063670  
         C         C         0.69609   0.31068   0.75140   0.064415  
         H         H         0.70569   0.33872   0.77883   0.064941  
         C         C         0.19578   0.80843   0.76147   0.066039  
         H         H         0.20457   0.83418   0.80485   0.064324  
         C         C         0.69472   0.69235   0.75190   0.065134  
         H         H         0.70460   0.66276   0.73951   0.063864  
         C         C         0.19558   0.18982   0.74550   0.062503  
         H         H         0.20510   0.16254   0.71508   0.066476  
         C         C         0.30051   0.30777   0.78263   0.062030  
         H         H         0.29203   0.33332   0.82518   0.068044  
         C         C         0.80042   0.81230   0.75645   0.068794  
         H         H         0.79120   0.84388   0.74759   0.065632  
         H         H         0.23429   0.68732   0.66668   0.109552  
         H         H         0.73198   0.18312   0.70395   0.108553  
         H         H         0.76468   0.31724   0.79647   0.109910  
         H         H         0.26294   0.81096   0.84005   0.109427  
         H         H         0.76295   0.68222   0.73982   0.106693  
         H         H         0.25990   0.19128   0.65519   0.109488  
         H         H         0.23645   0.30628   0.87423   0.109505  
         H         H         0.73161   0.82344   0.76307   0.108013  
         N         N         0.33379   0.69497   0.77617   -0.284782           
         N         N         0.83302   0.19356   0.76806   -0.292538           
         N         N         0.66352   0.30560   0.72348   -0.283406           
         N         N         0.16394   0.80551   0.71780   -0.286923           
         N         N         0.66216   0.69819   0.76756   -0.282982           
         N         N         0.16330   0.19431   0.77126   -0.293201           
         N         N         0.33161   0.30511   0.74091   -0.290101           
         N         N         0.83295   0.80289   0.77415   -0.278634           
         N         N         0.99864   0.93905   0.75165   -0.381093           
         N         N         0.49806   0.43992   0.75243   -0.382288           
         N         N         0.99858   0.05955   0.74044   -0.382485           
         N         N         0.49864   0.56055   0.74658   -0.383966 

