
##########################################################################
#               Crystallographic Information Format file
#               Produced by PyCifRW module
#
#  This is a CIF file.  CIF has been adopted by the International
#  Union of Crystallography as the standard for data archiving and
#  transmission.
#
#  For information on this file format, follow the CIF links at
#  http://www.iucr.org
##########################################################################

data_image0

_cell_length_a                          36.2081
_cell_length_b                          36.2101
_cell_length_c                          8.06629
_cell_angle_alpha                       67.2421
_cell_angle_beta                        112.881
_cell_angle_gamma                       91.7777
_symmetry_space_group_name_H-M          'P 1'
_space_group_name_Hall                  'P 1'
loop_
  _atom_site_type_symbol
  _atom_site_label
  _atom_site_fract_x
  _atom_site_fract_y
  _atom_site_fract_z
  _atom_site_charge
         C         C         0.50046   0.67213   0.28497   0.171841  
         C         C         0.55949   0.64312   0.27300   -0.184809           
         C         C         0.53877   0.60978   0.27280   -0.047145           
         C         C         0.54853   0.57184   0.26340   0.338242  
         C         C         0.52867   0.31834   0.22325   0.171830  
         C         C         0.46808   0.35342   0.19413   -0.184029           
         C         C         0.49181   0.38379   0.21661   -0.042436           
         C         C         0.48256   0.42176   0.22570   0.340323  
         O         O         0.55080   0.71096   0.27600   -0.341242           
         O         O         0.47242   0.28672   0.17682   -0.343037           
         H         H         0.58892   0.64481   0.26623   0.146679  
         H         H         0.43676   0.35540   0.17587   0.146970  
         C         C         0.33677   0.47292   0.26235   0.175619  
         C         C         0.37070   0.53224   0.27430   -0.186356           
         C         C         0.40207   0.51278   0.26353   -0.042473           
         C         C         0.44031   0.52545   0.26287   0.336125  
         C         C         0.69471   0.52103   0.22906   0.174070  
         C         C         0.66262   0.45982   0.23572   -0.186831           
         C         C         0.63055   0.47928   0.24207   -0.044183           
         C         C         0.59267   0.46590   0.24786   0.328851  
         O         O         0.30297   0.52232   0.28018   -0.337544           
         O         O         0.72994   0.47051   0.22552   -0.338649           
         H         H         0.37235   0.56127   0.28526   0.153410  
         H         H         0.66205   0.43000   0.23361   0.151974  
         N         N         0.58327   0.56335   0.25456   -0.390668           
         N         N         0.44700   0.43101   0.22541   -0.389046           
         C         C         0.53887   0.67405   0.27862   0.166092  
         C         C         0.47987   0.63921   0.28642   -0.181249           
         C         C         0.50032   0.60812   0.27963   -0.043220           
         C         C         0.48858   0.56964   0.27340   0.342873  
         C         C         0.48781   0.32107   0.19543   0.168364  
         C         C         0.55206   0.34898   0.23922   -0.183245           
         C         C         0.53216   0.38235   0.23345   -0.045068           
         C         C         0.54481   0.42071   0.24303   0.342422  
         O         O         0.48763   0.70757   0.28535   -0.339443           
         O         O         0.54006   0.28131   0.23107   -0.343634           
         H         H         0.45031   0.63765   0.29146   0.148808  
         H         H         0.58323   0.34732   0.25493   0.146187  
         C         C         0.69435   0.48184   0.23016   0.170060  
         C         C         0.66333   0.54071   0.23461   -0.192026           
         C         C         0.63093   0.51864   0.24170   -0.040443           
         C         C         0.59347   0.52931   0.24867   0.329318  
         C         C         0.33821   0.51107   0.27283   0.177040  
         C         C         0.36729   0.45347   0.25030   -0.184912           
         C         C         0.40034   0.47468   0.25002   -0.039209           
         C         C         0.43752   0.46422   0.23986   0.332505  
         O         O         0.73028   0.53480   0.22184   -0.332190           
         O         O         0.30076   0.45961   0.26524   -0.337930           
         H         H         0.66334   0.57084   0.23311   0.152237  
         H         H         0.36603   0.42422   0.24183   0.149531  
         N         N         0.45288   0.55930   0.27470   -0.389004           
         N         N         0.58104   0.43083   0.24790   -0.393688           
         B         B         0.51891   0.73136   0.27976   0.581352  
         B         B         0.50523   0.26191   0.20452   0.595468  
         N         N         0.51798   0.54832   0.26474   -0.463757           
         N         N         0.51458   0.44346   0.23962   -0.459779           
         B         B         0.28012   0.49037   0.27603   0.577224  
         B         B         0.75233   0.50309   0.22431   0.582142  
         N         N         0.45998   0.49557   0.24787   -0.328386           
         N         N         0.57199   0.49696   0.25085   -0.332199           
         H         H         0.54419   0.49597   0.25576   0.276906  
         H         H         0.48806   0.49637   0.24603   0.280116  
         N         N         0.96569   0.53891   0.14492   -0.255254           
         N         N         0.06627   0.45093   0.34486   -0.262866           
         H         H         0.98628   0.51297   0.21288   0.271452  
         H         H         0.04566   0.47687   0.27740   0.270983  
         C         C         0.96712   0.57711   0.01954   0.235040  
         C         C         0.06495   0.41268   0.47078   0.221532  
         C         C         0.92987   0.60122   0.95873   -0.194292           
         C         C         0.10265   0.38891   0.53367   -0.207382           
         C         C         0.92921   0.53705   0.16243   0.184633  
         C         C         0.10318   0.45321   0.33140   0.181487  
         C         C         0.90672   0.57700   0.04480   -0.194976           
         C         C         0.12603   0.41351   0.45027   -0.182733           
         H         H         0.92204   0.63292   0.85923   0.131862  
         H         H         0.11077   0.35721   0.63354   0.132500  
         H         H         0.87693   0.58594   0.02869   0.132088  
         H         H         0.15662   0.40543   0.47249   0.132672  
         N         N         0.05087   0.53160   0.12536   -0.401074           
         N         N         0.98191   0.45871   0.37315   -0.397958           
         C         C         0.03505   0.57126   0.00243   0.238845  
         C         C         0.99813   0.41929   0.49896   0.239390  
         C         C         0.06352   0.59245   0.92558   -0.187159           
         C         C         0.97170   0.39937   0.59365   -0.202848           
         C         C         0.94542   0.46413   0.38173   0.190999  
         C         C         0.08881   0.52702   0.13003   0.189081  
         C         C         0.93892   0.42734   0.52208   -0.181694           
         C         C         0.09721   0.56509   0.00626   -0.193692           
         H         H         0.05800   0.62387   0.82306   0.125203  
         H         H         0.97818   0.36855   0.70326   0.123085  
         C         C         0.99760   0.59100   0.95593   -0.229642           
         C         C         0.03482   0.39911   0.53816   -0.245383           
         H         H         0.91369   0.42412   0.56446   0.128902  
         H         H         0.12483   0.56981   0.98354   0.125213  
         C         C         0.91825   0.50092   0.27273   -0.071309           
         C         C         0.11516   0.48980   0.23265   -0.077745           
         C         C         0.87673   0.50128   0.26517   0.104201  
         C         C         0.15707   0.48936   0.24625   0.095157  
         C         C         0.85391   0.47013   0.23776   -0.137741           
         C         C         0.17487   0.45995   0.21564   -0.144755           
         C         C         0.18075   0.51839   0.29457   -0.140111           
         C         C         0.85785   0.53299   0.27686   -0.151958           
         C         C         0.50936   0.89492   0.25088   -0.077919           
         C         C         0.50899   0.09515   0.26380   -0.074322           
         C         C         0.51045   0.85434   0.24931   0.085725  
         C         C         0.50730   0.13714   0.24883   0.092589  
         C         C         0.54056   0.83967   0.21112   -0.138575           
         C         C         0.47296   0.16631   0.11146   -0.130008           
         C         C         0.54028   0.14990   0.36812   -0.146994           
         C         C         0.48313   0.82780   0.29666   -0.141932           
         H         H         0.86758   0.44569   0.22476   0.102749  
         H         H         0.15660   0.43822   0.17262   0.096577  
         H         H         0.16807   0.54040   0.32607   0.110581  
         H         H         0.87492   0.55676   0.30316   0.094796  
         C         C         0.81432   0.47086   0.22273   -0.049105           
         C         C         0.21449   0.45953   0.23121   -0.043304           
         C         C         0.21999   0.51867   0.30436   -0.055760           
         C         C         0.81814   0.53390   0.26037   -0.047610           
         H         H         0.79741   0.44667   0.19885   0.107728  
         H         H         0.22733   0.43662   0.20511   0.104625  
         H         H         0.23765   0.54155   0.33990   0.107199  
         H         H         0.80477   0.55864   0.27318   0.103177  
         C         C         0.79538   0.50288   0.23279   -0.241837           
         C         C         0.23765   0.48929   0.27320   -0.238325           
         H         H         0.99094   0.62271   0.85368   0.114716  
         H         H         0.04173   0.36750   0.64208   0.116431  
         N         N         0.46870   0.95287   0.21483   -0.263368           
         N         N         0.55044   0.03594   0.31512   -0.259345           
         H         H         0.49419   0.96614   0.26021   0.272330  
         H         H         0.52591   0.02018   0.30065   0.272255  
         C         C         0.42907   0.96576   0.16602   0.229653  
         C         C         0.58958   0.02394   0.35284   0.229351  
         C         C         0.40546   0.93776   0.10011   -0.198749           
         C         C         0.61058   0.05824   0.34890   -0.202501           
         C         C         0.47181   0.91754   0.19083   0.185503  
         C         C         0.54555   0.07551   0.29210   0.178365  
         C         C         0.43121   0.90897   0.11054   -0.183724           
         C         C         0.58377   0.08983   0.30852   -0.192512           
         H         H         0.37281   0.94016   0.04852   0.131267  
         H         H         0.64204   0.05835   0.37058   0.130481  
         H         H         0.42288   0.88456   0.06367   0.133546  
         H         H         0.58981   0.12022   0.29100   0.132094  
         N         N         0.47094   0.03863   0.23489   -0.395998           
         N         N         0.54909   0.94851   0.31252   -0.399275           
         C         C         0.43247   0.03109   0.21523   0.241458  
         C         C         0.58962   0.95118   0.38916   0.235657  
         C         C         0.41109   0.06293   0.22573   -0.190531           
         C         C         0.61371   0.91245   0.46189   -0.203204           
         C         C         0.54655   0.90965   0.32581   0.191116  
         C         C         0.47416   0.07519   0.24988   0.189564  
         C         C         0.58696   0.88620   0.42706   -0.187015           
         C         C         0.43714   0.09023   0.24987   -0.180670           
         H         H         0.38080   0.06332   0.22137   0.121592  
         H         H         0.64649   0.90624   0.53390   0.121755  
         C         C         0.41385   0.99905   0.17856   -0.226393           
         C         C         0.60711   0.98584   0.39499   -0.238672           
         H         H         0.59377   0.85416   0.46922   0.125300  
         H         H         0.43247   0.11707   0.27184   0.122797  
         H         H         0.56061   0.86011   0.16475   0.100251  
         H         H         0.44784   0.15794   0.01043   0.106439  
         H         H         0.56638   0.12783   0.48048   0.098091  
         H         H         0.46065   0.83731   0.33533   0.104434  
         C         C         0.54442   0.80021   0.22708   -0.052851           
         C         C         0.47130   0.20574   0.09900   -0.062325           
         C         C         0.53942   0.18977   0.34877   -0.061279           
         C         C         0.48602   0.78890   0.30485   -0.056877           
         H         H         0.56818   0.78982   0.19782   0.105533  
         H         H         0.44424   0.22734   0.99172   0.109370  
         H         H         0.56567   0.19868   0.44192   0.102927  
         H         H         0.46459   0.76911   0.34190   0.105528  
         C         C         0.51706   0.77400   0.27380   -0.231161           
         C         C         0.50477   0.21857   0.21507   -0.227094           
         H         H         0.38196   0.00035   0.15240   0.115007  
         H         H         0.63980   0.98286   0.44034   0.113489  
         C         C         0.46537   0.68028   0.78215   0.168074  
         C         C         0.52419   0.65051   0.77283   -0.181512           
         C         C         0.50334   0.61734   0.77377   -0.042001           
         C         C         0.51423   0.57909   0.77099   0.339972  
         C         C         0.49994   0.32985   0.69646   0.172803  
         C         C         0.43803   0.35912   0.68415   -0.186003           
         C         C         0.45967   0.39063   0.71134   -0.042642           
         C         C         0.44940   0.42745   0.72939   0.333077  
         O         O         0.51654   0.71819   0.77609   -0.336852           
         O         O         0.44646   0.29456   0.64903   -0.347913           
         H         H         0.55400   0.65131   0.77045   0.146582  
         H         H         0.40707   0.35812   0.67155   0.145196  
         C         C         0.30284   0.47725   0.76903   0.173298  
         C         C         0.33621   0.53729   0.77352   -0.188561           
         C         C         0.36809   0.51763   0.76692   -0.043033           
         C         C         0.40638   0.53057   0.76689   0.330488  
         C         C         0.66088   0.52892   0.73568   0.175928  
         C         C         0.62763   0.46887   0.73100   -0.185722           
         C         C         0.59638   0.48819   0.74284   -0.044356           
         C         C         0.55857   0.47493   0.74794   0.339915  
         O         O         0.26835   0.52768   0.77694   -0.338113           
         O         O         0.69468   0.47945   0.71833   -0.337410           
         H         H         0.33739   0.56667   0.78065   0.152310  
         H         H         0.62624   0.43952   0.72335   0.153026  
         N         N         0.54961   0.57099   0.76660   -0.387430           
         N         N         0.41425   0.43537   0.73615   -0.392444           
         C         C         0.50375   0.68184   0.77593   0.169781  
         C         C         0.44438   0.64743   0.78282   -0.184100           
         C         C         0.46457   0.61576   0.77752   -0.048449           
         C         C         0.45366   0.57651   0.77489   0.342545  
         C         C         0.45944   0.32928   0.67500   0.165632  
         C         C         0.52124   0.36138   0.71715   -0.179931           
         C         C         0.49958   0.39187   0.72232   -0.044091           
         C         C         0.51094   0.42977   0.73765   0.341640  
         O         O         0.45359   0.71577   0.78726   -0.339911           
         O         O         0.51343   0.29515   0.69188   -0.341951           
         H         H         0.41500   0.64602   0.79006   0.147027  
         H         H         0.55202   0.36272   0.72719   0.148895  
         C         C         0.65965   0.49056   0.72747   0.176558  
         C         C         0.63016   0.54846   0.74626   -0.183517           
         C         C         0.59748   0.52685   0.75024   -0.039893           
         C         C         0.56017   0.53723   0.75960   0.331894  
         C         C         0.30392   0.51597   0.77348   0.171627  
         C         C         0.33393   0.45754   0.76133   -0.193263           
         C         C         0.36696   0.47894   0.75944   -0.039737           
         C         C         0.40445   0.46840   0.75182   0.328680  
         O         O         0.69685   0.54225   0.73185   -0.335880           
         O         O         0.26682   0.46409   0.77262   -0.333271           
         H         H         0.63087   0.57810   0.75046   0.152000  
         H         H         0.33317   0.42788   0.75714   0.151387  
         N         N         0.41805   0.56516   0.77385   -0.392407           
         N         N         0.54679   0.44057   0.74066   -0.388317           
         B         B         0.48536   0.73900   0.78317   0.576538  
         B         B         0.48036   0.27359   0.66234   0.597166  
         N         N         0.48399   0.55523   0.77183   -0.458338           
         N         N         0.48052   0.45056   0.74174   -0.460239           
         B         B         0.24532   0.49573   0.77324   0.582980  
         B         B         0.71753   0.51141   0.72149   0.575660  
         N         N         0.42667   0.50006   0.75868   -0.333666           
         N         N         0.53848   0.50510   0.75906   -0.329623           
         H         H         0.51053   0.50467   0.76228   0.279861  
         H         H         0.45477   0.50028   0.75727   0.277493  
         N         N         0.93101   0.54985   0.64442   -0.262763           
         N         N         0.03196   0.46161   0.84906   -0.254487           
         H         H         0.95154   0.52388   0.71137   0.271357  
         H         H         0.01144   0.48759   0.78130   0.271343  
         C         C         0.93247   0.58808   0.51876   0.220268  
         C         C         0.03028   0.42335   0.97257   0.235735  
         C         C         0.89473   0.61190   0.45486   -0.206083           
         C         C         0.06758   0.39921   0.03448   -0.194211           
         C         C         0.89412   0.54770   0.65809   0.180063  
         C         C         0.06855   0.46344   0.83274   0.184061  
         C         C         0.87129   0.58739   0.53832   -0.183345           
         C         C         0.09099   0.42348   0.95052   -0.194046           
         H         H         0.88661   0.64355   0.35411   0.132705  
         H         H         0.07530   0.36747   0.13336   0.131674  
         H         H         0.84063   0.59551   0.51510   0.133946  
         H         H         0.12094   0.41456   0.96828   0.131860  
         N         N         0.01585   0.54188   0.62095   -0.397457           
         N         N         0.94637   0.46918   0.86397   -0.400455           
         C         C         -0.00029  0.58130   0.49460   0.237894  
         C         C         0.96203   0.42944   0.98611   0.238066  
         C         C         0.02620   0.60107   0.39997   -0.201893           
         C         C         0.93359   0.40835   0.06332   -0.187063           
         C         C         0.90855   0.47394   0.86046   0.190015  
         C         C         0.05232   0.53632   0.61244   0.192455  
         C         C         0.90012   0.43593   0.98445   -0.194657           
         C         C         0.05886   0.57297   0.47147   -0.183743           
         H         H         0.01976   0.63186   0.29008   0.123068  
         H         H         0.93901   0.37692   0.16502   0.125648  
         C         C         0.96292   0.60159   0.45365   -0.245628           
         C         C         -0.00058  0.40950   0.03324   -0.231905           
         H         H         0.87269   0.43137   0.00864   0.125261  
         H         H         0.08401   0.57596   0.42854   0.131141  
         C         C         0.88222   0.51117   0.75833   -0.077583           
         C         C         0.07946   0.49951   0.72194   -0.071787           
         C         C         0.84049   0.51168   0.74750   0.095539  
         C         C         0.12089   0.49894   0.72897   0.101787  
         C         C         0.81666   0.48245   0.70237   -0.139912           
         C         C         0.13946   0.46703   0.71722   -0.150902           
         C         C         0.14389   0.52999   0.75601   -0.135223           
         C         C         0.82294   0.54129   0.77796   -0.144536           
         C         C         0.48807   0.90552   0.73010   -0.078981           
         C         C         0.49343   0.10550   0.75184   -0.077038           
         C         C         0.48688   0.86368   0.74184   0.097369  
         C         C         0.49111   0.14855   0.72054   0.091239  
         C         C         0.51384   0.84557   0.69856   -0.146567           
         C         C         0.45718   0.17665   0.56735   -0.137626           
         C         C         0.52192   0.16319   0.83998   -0.147296           
         C         C         0.45954   0.83944   0.80497   -0.141307           
         H         H         0.82909   0.46023   0.67111   0.109558  
         H         H         0.12211   0.44347   0.69001   0.095737  
         H         H         0.13033   0.55461   0.76834   0.102144  
         H         H         0.84120   0.56329   0.81823   0.096880  
         C         C         0.77757   0.48226   0.69456   -0.057583           
         C         C         0.17922   0.46573   0.73491   -0.049028           
         C         C         0.18351   0.52892   0.77153   -0.048499           
         C         C         0.78346   0.54178   0.76452   -0.045594           
         H         H         0.75994   0.45912   0.66177   0.107377  
         H         H         0.19248   0.44090   0.72228   0.103152  
         H         H         0.20055   0.55314   0.79391   0.107428  
         H         H         0.77081   0.56480   0.79063   0.105911  
         C         C         0.76007   0.51201   0.72435   -0.234700           
         C         C         0.20222   0.49655   0.76302   -0.242146           
         H         H         0.95625   0.63322   0.35027   0.117309  
         H         H         0.00572   0.37770   0.13383   0.116526  
         N         N         0.44895   0.96481   0.69406   -0.260312           
         N         N         0.53360   0.04561   0.80365   -0.259731           
         H         H         0.47500   0.97743   0.73897   0.273543  
         H         H         0.50838   0.03093   0.78023   0.273121  
         C         C         0.40950   0.97899   0.64236   0.228291  
         C         C         0.57243   0.03292   0.84011   0.230189  
         C         C         0.38503   0.95148   0.57610   -0.212613           
         C         C         0.59514   0.06553   0.85383   -0.204002           
         C         C         0.45116   0.92903   0.67313   0.181034  
         C         C         0.53011   0.08463   0.78971   0.186567  
         C         C         0.41020   0.92139   0.59190   -0.190502           
         C         C         0.56936   0.09723   0.82005   -0.182587           
         H         H         0.35231   0.95491   0.52187   0.130097  
         H         H         0.62697   0.06457   0.88181   0.131159  
         H         H         0.40150   0.89668   0.54769   0.134071  
         H         H         0.57647   0.12682   0.81345   0.133947  
         N         N         0.45399   0.04965   0.72393   -0.394704           
         N         N         0.52882   0.95914   0.78183   -0.399682           
         C         C         0.41506   0.04346   0.70047   0.237935  
         C         C         0.56920   0.96282   0.83903   0.242614  
         C         C         0.39448   0.07610   0.70957   -0.200446           
         C         C         0.59263   0.92592   0.88167   -0.192852           
         C         C         0.52563   0.92094   0.78499   0.190754  
         C         C         0.45814   0.08632   0.73730   0.188971  
         C         C         0.56586   0.89947   0.85280   -0.185555           
         C         C         0.42132   0.10284   0.73307   -0.184809           
         H         H         0.36401   0.07766   0.70227   0.123662  
         H         H         0.62521   0.92098   0.93036   0.123406  
         C         C         0.39525   0.01246   0.65731   -0.240873           
         C         C         0.58792   0.99608   0.85904   -0.231549           
         H         H         0.57303   0.86849   0.87836   0.124467  
         H         H         0.41727   0.13027   0.75140   0.121357  
         H         H         0.53373   0.86363   0.63894   0.099585  
         H         H         0.43385   0.16657   0.46685   0.109249  
         H         H         0.54767   0.14204   0.96291   0.094503  
         H         H         0.43999   0.85134   0.85152   0.098012  
         C         C         0.51445   0.80537   0.72300   -0.044341           
         C         C         0.45305   0.21667   0.54449   -0.056746           
         C         C         0.51877   0.20362   0.81065   -0.052526           
         C         C         0.45827   0.80009   0.81612   -0.055092           
         H         H         0.53636   0.79230   0.69225   0.107760  
         H         H         0.42606   0.23731   0.42796   0.106056  
         H         H         0.54291   0.21374   0.90815   0.104387  
         H         H         0.43641   0.78260   0.86274   0.107791  
         C         C         0.48601   0.78187   0.77761   -0.244270           
         C         C         0.48370   0.23098   0.66627   -0.230117           
         H         H         0.36310   0.01504   0.62623   0.114072  
         H         H         0.62030   0.99288   0.89575   0.115466 

