
##########################################################################
#               Crystallographic Information Format file
#               Produced by PyCifRW module
#
#  This is a CIF file.  CIF has been adopted by the International
#  Union of Crystallography as the standard for data archiving and
#  transmission.
#
#  For information on this file format, follow the CIF links at
#  http://www.iucr.org
##########################################################################

data_image0

_cell_length_a                          13.79
_cell_length_b                          13.5574
_cell_length_c                          8.56957
_cell_angle_alpha                       89.7042
_cell_angle_beta                        89.3139
_cell_angle_gamma                       89.8041
_symmetry_space_group_name_H-M          'P 1'
_space_group_name_Hall                  'P 1'
loop_
  _atom_site_type_symbol
  _atom_site_label
  _atom_site_fract_x
  _atom_site_fract_y
  _atom_site_fract_z
  _atom_site_charge
         C         C         0.93799   0.91305   0.86290   -0.215118           
         C         C         0.90982   0.94723   0.71470   -0.045936           
         H         H         0.92610   0.02252   0.67854   0.106387  
         C         C         0.85978   0.88711   0.61163   -0.142487           
         H         H         0.83839   0.91541   0.49850   0.128597  
         C         C         0.83707   0.79069   0.65869   0.104463  
         C         C         0.86246   0.75523   0.80667   -0.143303           
         H         H         0.84083   0.68100   0.83992   0.123932  
         C         C         0.91322   0.81609   0.90713   -0.052627           
         H         H         0.93286   0.78797   0.02192   0.105966  
         N         N         0.77924   0.72443   0.56694   0.267409  
         O         O         0.72692   0.65960   0.63553   -0.408764           
         C         C         0.07217   0.09215   0.89034   -0.184879           
         C         C         0.13235   0.06644   0.76239   -0.073024           
         H         H         0.13637   0.99031   0.72245   0.116110  
         C         C         0.18739   0.13818   0.68546   -0.106753           
         H         H         0.23385   0.12081   0.58572   0.113202  
         C         C         0.18102   0.23665   0.73435   0.106421  
         C         C         0.12075   0.26399   0.86001   -0.117478           
         H         H         0.11785   0.34113   0.89362   0.117132  
         C         C         0.06770   0.19178   0.93779   -0.062148           
         H         H         0.02195   0.21235   0.03686   0.105781  
         N         N         0.24099   0.30543   0.65125   0.042157  
         O         O         0.22874   0.39320   0.68686   -0.214966           
         C         C         0.91300   0.05969   0.13450   -0.213210           
         C         C         0.94634   0.10098   0.27463   -0.055582           
         H         H         0.02209   0.09340   0.30692   0.105431  
         C         C         0.88451   0.15316   0.37386   -0.137344           
         H         H         0.91169   0.18517   0.48056   0.133046  
         C         C         0.78737   0.16431   0.33192   0.103923  
         C         C         0.75239   0.12674   0.19189   -0.142052           
         H         H         0.67703   0.13974   0.16211   0.124174  
         C         C         0.81535   0.07396   0.09442   -0.055782           
         H         H         0.78815   0.04415   0.98563   0.109659  
         N         N         0.72086   0.22232   0.42504   0.264859  
         O         O         0.65934   0.27896   0.35872   -0.411732           
         C         C         0.08748   0.92369   0.12801   -0.216068           
         C         C         0.05257   0.88200   0.26862   -0.057737           
         H         H         0.97649   0.88941   0.30130   0.107965  
         C         C         0.11343   0.83062   0.36924   -0.137997           
         H         H         0.08518   0.80004   0.47783   0.130515  
         C         C         0.21103   0.81960   0.32661   0.103695  
         C         C         0.24761   0.85735   0.18552   -0.142912           
         H         H         0.32345   0.84483   0.15549   0.125267  
         C         C         0.18585   0.90996   0.08781   -0.053649           
         H         H         0.21496   0.94051   0.97930   0.101456  
         N         N         0.27784   0.76290   0.41951   0.266379  
         O         O         0.34258   0.71011   0.35203   -0.412456           
         C         C         0.44044   0.58563   0.86806   -0.214465           
         C         C         0.39451   0.54604   0.73654   -0.053324           
         H         H         0.39864   0.46731   0.71330   0.104760  
         C         C         0.34109   0.60500   0.63536   -0.135200           
         H         H         0.30551   0.57262   0.53564   0.133103  
         C         C         0.33326   0.70572   0.66786   0.103140  
         C         C         0.37714   0.74738   0.79801   -0.143937           
         H         H         0.36737   0.82569   0.81951   0.125151  
         C         C         0.43119   0.68714   0.89691   -0.055412           
         H         H         0.46558   0.71925   -0.00162  0.105450  
         N         N         0.27242   0.77065   0.57703   0.264086  
         O         O         0.21945   0.83499   0.64587   -0.410348           
         C         C         0.57345   0.40954   0.88014   -0.213067           
         C         C         0.61388   0.44407   0.73828   -0.058242           
         H         H         0.60687   0.52134   0.70513   0.111537  
         C         C         0.66253   0.38118   0.63591   -0.137405           
         H         H         0.69126   0.40904   0.52591   0.133480  
         C         C         0.67202   0.28175   0.67773   0.104019  
         C         C         0.63664   0.24584   0.82062   -0.144315           
         H         H         0.64857   0.16868   0.84982   0.125343  
         C         C         0.58683   0.30974   0.92025   -0.056772           
         H         H         0.55798   0.28103   0.03005   0.100685  
         N         N         0.72500   0.21232   0.58257   0.266596  
         O         O         0.77191   0.14214   0.64725   -0.409964           
         C         C         0.40790   0.43217   0.12210   -0.187322           
         C         C         0.43351   0.36141   0.23604   -0.070194           
         H         H         0.50919   0.34953   0.26658   0.115569  
         C         C         0.36224   0.30498   0.31024   -0.115427           
         H         H         0.38019   0.24934   0.39725   0.115691  
         C         C         0.26431   0.32101   0.27510   0.109302  
         C         C         0.23704   0.39403   0.16772   -0.121310           
         H         H         0.16024   0.40542   0.14629   0.119346  
         C         C         0.30861   0.44827   0.09102   -0.059489           
         H         H         0.28768   0.50324   0.00472   0.106437  
         N         N         0.19652   0.25586   0.35036   0.027664  
         O         O         0.10963   0.27479   0.32698   -0.229165           
         C         C         0.58832   0.56738   0.13340   -0.213670           
         C         C         0.55498   0.61137   0.27274   -0.056115           
         H         H         0.47919   0.60562   0.30864   0.114749  
         C         C         0.61767   0.66358   0.36797   -0.138598           
         H         H         0.59128   0.69635   0.47569   0.130778  
         C         C         0.71496   0.67264   0.32190   0.105330  
         C         C         0.74965   0.63228   0.18213   -0.144909           
         H         H         0.82528   0.64295   0.14944   0.127183  
         C         C         0.68625   0.57927   0.08933   -0.054928           
         H         H         0.71340   0.54663   0.98143   0.106120  
         N         N         0.78337   0.73032   0.40885   0.265693  
         O         O         0.84774   0.78048   0.33581   -0.407926           
         Si        Si        0.00204   0.99580   0.00206   0.701587  
         Si        Si        0.50341   0.49897   0.00462   0.698781 

