
##########################################################################
#               Crystallographic Information Format file
#               Produced by PyCifRW module
#
#  This is a CIF file.  CIF has been adopted by the International
#  Union of Crystallography as the standard for data archiving and
#  transmission.
#
#  For information on this file format, follow the CIF links at
#  http://www.iucr.org
##########################################################################

data_image0

_cell_length_a                          13.1984
_cell_length_b                          13.4367
_cell_length_c                          7.88268
_cell_angle_alpha                       89.903
_cell_angle_beta                        90.0549
_cell_angle_gamma                       90.1054
_symmetry_space_group_name_H-M          'P 1'
_space_group_name_Hall                  'P 1'
loop_
  _atom_site_type_symbol
  _atom_site_label
  _atom_site_fract_x
  _atom_site_fract_y
  _atom_site_fract_z
  _atom_site_charge
         C         C         0.05156   0.92045   0.88282   0.075947  
         C         C         0.10966   0.95293   0.74353   -0.125103           
         H         H         0.11677   0.03183   0.71577   0.122977  
         C         C         0.15930   0.88601   0.63832   -0.136712           
         H         H         0.20400   0.91306   0.53221   0.129470  
         C         C         0.15084   0.78415   0.67212   0.093311  
         C         C         0.09257   0.74956   0.80745   -0.135942           
         H         H         0.08705   0.67002   0.83078   0.127398  
         C         C         0.04252   0.81787   0.91083   -0.113710           
         H         H         0.99590   0.79002   0.01393   0.115503  
         N         N         0.20891   0.71184   0.57878   0.265451  
         O         O         0.25229   0.64032   0.65725   -0.414417           
         C         C         0.94675   0.07691   0.88283   0.073684  
         C         C         0.90401   0.04660   0.72756   -0.120379           
         H         H         0.90868   0.96932   0.68826   0.118989  
         C         C         0.85359   0.11315   0.62170   -0.139959           
         H         H         0.82182   0.08772   0.50238   0.127162  
         C         C         0.84384   0.21229   0.67310   0.092684  
         C         C         0.88356   0.24393   0.82802   -0.133734           
         H         H         0.87295   0.32081   0.86624   0.124082  
         C         C         0.93520   0.17660   0.93120   -0.119244           
         H         H         0.96539   0.20300   0.05116   0.118360  
         N         N         0.78441   0.28366   0.57949   0.268014  
         O         O         0.73156   0.34814   0.65866   -0.411730           
         C         C         0.92265   0.94712   0.11401   0.072281  
         C         C         0.95827   0.89554   0.25771   -0.122926           
         H         H         0.03876   0.89397   0.28599   0.123754  
         C         C         0.89314   0.84366   0.36448   -0.135934           
         H         H         0.92332   0.80396   0.47335   0.128293  
         C         C         0.78938   0.84341   0.32722   0.091705  
         C         C         0.75217   0.89298   0.18430   -0.139345           
         H         H         0.67148   0.88981   0.15788   0.126496  
         C         C         0.81881   0.94470   0.07856   -0.120296           
         H         H         0.78929   0.98256   0.96710   0.117238  
         N         N         0.71717   0.78625   0.42385   0.267875  
         O         O         0.64108   0.74649   0.34983   -0.417508           
         C         C         0.07962   0.05210   0.11137   0.073538  
         C         C         0.04499   0.10056   0.25842   -0.119025           
         H         H         0.96503   0.09917   0.29059   0.116533  
         C         C         0.10991   0.15259   0.36518   -0.133964           
         H         H         0.08010   0.18961   0.47654   0.128922  
         C         C         0.21300   0.15657   0.32434   0.090241  
         C         C         0.24962   0.11038   0.17833   -0.137543           
         H         H         0.32962   0.11707   0.14802   0.125291  
         C         C         0.18322   0.05782   0.07344   -0.114423           
         H         H         0.21346   0.02183   0.96123   0.114529  
         N         N         0.28429   0.21407   0.42222   0.269102  
         O         O         0.35861   0.25773   0.34963   -0.415710           
         C         C         0.55485   0.57644   0.88617   0.068362  
         C         C         0.59493   0.54713   0.72848   -0.117301           
         H         H         0.58582   0.47100   0.68497   0.117867  
         C         C         0.64959   0.61282   0.62696   -0.138196           
         H         H         0.68019   0.58791   0.50649   0.128253  
         C         C         0.66631   0.70970   0.68495   0.090724  
         C         C         0.63044   0.73991   0.84303   -0.132311           
         H         H         0.64815   0.81438   0.88749   0.122717  
         C         C         0.57442   0.67359   0.94197   -0.123918           
         H         H         0.54840   0.69862   0.06534   0.119067  
         N         N         0.72980   0.77917   0.59406   0.265861  
         O         O         0.79312   0.83319   0.67505   -0.406387           
         C         C         0.44446   0.42200   0.88669   0.067980  
         C         C         0.39003   0.45510   0.74355   -0.118140           
         H         H         0.38816   0.53376   0.71158   0.118681  
         C         C         0.33627   0.38948   0.64096   -0.135838           
         H         H         0.29462   0.41732   0.53178   0.129828  
         C         C         0.33586   0.28845   0.68307   0.094740  
         C         C         0.38857   0.25331   0.82403   -0.134483           
         H         H         0.38634   0.17436   0.85384   0.125700  
         C         C         0.44336   0.32007   0.92410   -0.119351           
         H         H         0.48500   0.29129   0.03236   0.119148  
         N         N         0.27291   0.21836   0.59241   0.260558  
         O         O         0.21226   0.16197   0.67486   -0.404928           
         C         C         0.42111   0.55308   0.11401   0.069496  
         C         C         0.45315   0.59814   0.26612   -0.117054           
         H         H         0.53190   0.59350   0.30545   0.113354  
         C         C         0.38669   0.65072   0.36951   -0.135517           
         H         H         0.41418   0.68455   0.48586   0.129946  
         C         C         0.28571   0.66016   0.31822   0.093317  
         C         C         0.25173   0.61726   0.16776   -0.133004           
         H         H         0.17328   0.62759   0.12966   0.125324  
         C         C         0.31888   0.56282   0.06806   -0.119528           
         H         H         0.29004   0.52894   0.95287   0.117342  
         N         N         0.21469   0.72200   0.40858   0.263877  
         O         O         0.15738   0.78165   0.32617   -0.408984           
         C         C         0.57843   0.44593   0.11222   0.068833  
         C         C         0.54593   0.39637   0.25992   -0.118799           
         H         H         0.46626   0.39651   0.29468   0.120616  
         C         C         0.61326   0.34456   0.36291   -0.135627           
         H         H         0.58613   0.30668   0.47574   0.131320  
         C         C         0.71552   0.34152   0.31644   0.092809  
         C         C         0.74959   0.38842   0.16942   -0.138570           
         H         H         0.82923   0.38296   0.13611   0.126887  
         C         C         0.68114   0.44077   0.06823   -0.120051           
         H         H         0.70868   0.47660   0.95356   0.118528  
         N         N         0.78809   0.28214   0.40796   0.265542  
         O         O         0.85453   0.23224   0.32662   -0.413995           
         C         C         0.00042   -0.00095  -0.00270  0.007261  
         C         C         0.49949   0.49924   -0.00044  0.006819 

