
##########################################################################
#               Crystallographic Information Format file
#               Produced by PyCifRW module
#
#  This is a CIF file.  CIF has been adopted by the International
#  Union of Crystallography as the standard for data archiving and
#  transmission.
#
#  For information on this file format, follow the CIF links at
#  http://www.iucr.org
##########################################################################

data_image0

_cell_length_a                          15.6917
_cell_length_b                          15.5911
_cell_length_c                          7.14321
_cell_angle_alpha                       90.0779
_cell_angle_beta                        89.9617
_cell_angle_gamma                       90.5431
_symmetry_space_group_name_H-M          'P 1'
_space_group_name_Hall                  'P 1'
loop_
  _atom_site_type_symbol
  _atom_site_label
  _atom_site_fract_x
  _atom_site_fract_y
  _atom_site_fract_z
  _atom_site_charge
         H         H         0.79008   0.78794   0.09368   0.093926  
         C         C         0.80753   0.69052   0.88036   0.147487  
         C         C         0.86329   0.74843   0.75488   -0.271572           
         H         H         0.90401   0.79028   0.84070   0.107271  
         H         H         0.90467   0.70795   0.66841   0.096480  
         C         C         0.86111   0.63695   0.01337   0.089060  
         C         C         0.95019   0.64547   0.02289   -0.127228           
         H         H         0.98341   0.68629   0.92315   0.115234  
         C         C         0.99732   0.60388   0.15949   -0.141444           
         H         H         0.06627   0.60957   0.16472   0.126041  
         C         C         0.95551   0.55303   0.29296   0.085245  
         C         C         0.86699   0.54085   0.28367   -0.139957           
         H         H         0.83412   0.50086   0.38506   0.122724  
         C         C         0.82124   0.58214   0.14387   -0.124328           
         H         H         0.75241   0.57296   0.14090   0.102573  
         N         N         0.01039   0.50975   0.42379   0.262585  
         O         O         0.08548   0.48932   0.37132   -0.410416           
         H         H         0.70958   0.70812   0.09326   0.092418  
         C         C         0.69292   0.80486   0.87854   0.149234  
         C         C         0.63775   0.74675   0.75226   -0.273109           
         H         H         0.59626   0.70510   0.83660   0.106640  
         H         H         0.59714   0.78697   0.66382   0.097721  
         C         C         0.63905   0.85978   0.00856   0.082846  
         C         C         0.54993   0.85154   0.01878   -0.129794           
         H         H         0.51641   0.80913   0.92248   0.114725  
         C         C         0.50295   0.89589   0.15182   -0.137541           
         H         H         0.43395   0.89053   0.15807   0.126038  
         C         C         0.54494   0.94931   0.28041   0.088661  
         C         C         0.63352   0.96112   0.27026   -0.144004           
         H         H         0.66619   0.00348   0.36738   0.123905  
         C         C         0.67898   0.91688   0.13419   -0.123317           
         H         H         0.74777   0.92612   0.12934   0.102177  
         N         N         0.49010   0.99479   0.40785   0.263446  
         O         O         0.41481   0.01326   0.35393   -0.413032           
         H         H         0.21144   0.28583   0.58973   0.092423  
         C         C         0.30544   0.30834   0.37135   0.141596  
         C         C         0.24623   0.36239   0.24774   -0.268911           
         H         H         0.20410   0.40176   0.33452   0.108046  
         H         H         0.28535   0.40575   0.16114   0.097217  
         C         C         0.35926   0.36394   0.50201   0.082901  
         C         C         0.34637   0.45260   0.52149   -0.129037           
         H         H         0.30103   0.48502   0.43187   0.114681  
         C         C         0.38972   0.50047   0.65615   -0.142307           
         H         H         0.38098   0.56922   0.66944   0.126514  
         C         C         0.44638   0.45988   0.77756   0.091206  
         C         C         0.46275   0.37212   0.75778   -0.142833           
         H         H         0.50760   0.34050   0.84907   0.122572  
         C         C         0.41968   0.32572   0.62017   -0.123925           
         H         H         0.43225   0.25741   0.60820   0.103702  
         N         N         0.48998   0.51585   0.90822   0.261429  
         O         O         0.50640   0.59295   0.85814   -0.402526           
         H         H         0.29248   0.20781   0.58162   0.095487  
         C         C         0.19415   0.18871   0.37136   0.147117  
         C         C         0.25234   0.13533   0.24312   -0.273278           
         H         H         0.29483   0.09524   0.32702   0.109927  
         H         H         0.21263   0.09282   0.15578   0.095729  
         C         C         0.14036   0.13304   0.50215   0.081901  
         C         C         0.14900   0.04355   0.51379   -0.128358           
         H         H         0.19091   0.01036   0.41726   0.114135  
         C         C         0.10542   0.99558   0.64803   -0.140864           
         H         H         0.11098   0.92624   0.65396   0.125850  
         C         C         0.05249   0.03697   0.77713   0.089824  
         C         C         0.04002   0.12570   0.76468   -0.142514           
         H         H         0.99774   0.15805   0.86096   0.123148  
         C         C         0.08326   0.17205   0.62741   -0.123045           
         H         H         0.07298   0.24091   0.62127   0.104159  
         N         N         0.00824   0.98159   0.90766   0.263370  
         O         O         0.99113   0.90457   0.85789   -0.408492           
         H         H         0.20825   0.20787   0.90697   0.094111  
         C         C         0.18978   0.30477   0.12174   0.142975  
         C         C         0.13653   0.24546   0.24892   -0.272247           
         H         H         0.09469   0.20348   0.16579   0.107835  
         H         H         0.09615   0.28528   0.33912   0.096555  
         C         C         0.13416   0.35913   0.99420   0.086166  
         C         C         0.04485   0.35112   0.98811   -0.129227           
         H         H         0.01219   0.30843   0.08509   0.116167  
         C         C         0.99657   0.39624   0.85846   -0.141159           
         H         H         0.92747   0.39132   0.85611   0.126498  
         C         C         0.03760   0.44973   0.72897   0.090257  
         C         C         0.12614   0.46159   0.73588   -0.143373           
         H         H         0.15770   0.50442   0.63828   0.122310  
         C         C         0.17294   0.41676   0.86819   -0.124512           
         H         H         0.24172   0.42620   0.86952   0.101536  
         N         N         0.98312   0.49552   0.60159   0.260986  
         O         O         0.90916   0.51844   0.65654   -0.408274           
         H         H         0.28618   0.29031   0.90331   0.094258  
         C         C         0.30788   0.19401   0.11736   0.148359  
         C         C         0.36194   0.25333   0.24321   -0.270747           
         H         H         0.40149   0.29689   0.15877   0.107075  
         H         H         0.40443   0.21356   0.32830   0.095713  
         C         C         0.36377   0.14193   0.98537   0.083161  
         C         C         0.45195   0.15689   0.96843   -0.126047           
         H         H         0.48355   0.20318   0.05931   0.115787  
         C         C         0.50058   0.11451   0.83490   -0.141411           
         H         H         0.56890   0.12529   0.82426   0.125186  
         C         C         0.46125   0.05647   0.71211   0.089924  
         C         C         0.37390   0.03845   0.72830   -0.139194           
         H         H         0.34329   0.99261   0.63545   0.122357  
         C         C         0.32667   0.08077   0.86458   -0.123384           
         H         H         0.25874   0.06664   0.87347   0.102938  
         N         N         0.51745   0.01250   0.58432   0.263351  
         O         O         0.59318   0.99561   0.63771   -0.410322           
         H         H         0.79117   0.70650   0.41572   0.094543  
         C         C         0.69351   0.68892   0.62801   0.147735  
         C         C         0.74996   0.63367   0.75524   -0.272516           
         H         H         0.79053   0.59202   0.67051   0.110009  
         H         H         0.70918   0.59265   0.84341   0.095278  
         C         C         0.63861   0.63483   0.49618   0.087692  
         C         C         0.64102   0.54473   0.49124   -0.128092           
         H         H         0.67806   0.51009   0.59440   0.113928  
         C         C         0.59761   0.49799   0.35489   -0.144447           
         H         H         0.59800   0.42838   0.35269   0.125300  
         C         C         0.55122   0.54083   0.21657   0.092473  
         C         C         0.54412   0.63047   0.22331   -0.143821           
         H         H         0.50696   0.66433   0.12003   0.121046  
         C         C         0.58704   0.67572   0.36293   -0.125969           
         H         H         0.58190   0.74528   0.36373   0.103014  
         N         N         0.50914   0.48591   0.08171   0.261878  
         O         O         0.49373   0.40776   0.12480   -0.410880           
         H         H         0.71241   0.78664   0.41313   0.093585  
         C         C         0.80812   0.80563   0.62851   0.147118  
         C         C         0.75057   0.86120   0.75316   -0.272219           
         H         H         0.70951   0.90197   0.66729   0.107713  
         H         H         0.79079   0.90317   0.84064   0.096593  
         C         C         0.86267   0.85998   0.49675   0.087057  
         C         C         0.85390   0.94939   0.48335   -0.130287           
         H         H         0.81246   0.98309   0.57989   0.115163  
         C         C         0.89611   0.99648   0.34609   -0.140336           
         H         H         0.89017   0.06568   0.33774   0.126092  
         C         C         0.94761   0.95452   0.21529   0.090006  
         C         C         0.96027   0.86576   0.22915   -0.143622           
         H         H         0.00083   0.83268   0.13049   0.122286  
         C         C         0.91855   0.82018   0.37007   -0.122976           
         H         H         0.92821   0.75119   0.37677   0.102217  
         N         N         0.99024   0.01035   0.08307   0.261745  
         O         O         0.00560   0.08785   0.13194   -0.409595           
         C         C         0.74997   0.74794   0.00203   -0.263760           
         C         C         0.25088   0.24761   0.49445   -0.258417           
         C         C         0.24795   0.24930   -0.00339  -0.260920           
         C         C         0.75135   0.74684   0.50576   -0.265758 

