
##########################################################################
#               Crystallographic Information Format file
#               Produced by PyCifRW module
#
#  This is a CIF file.  CIF has been adopted by the International
#  Union of Crystallography as the standard for data archiving and
#  transmission.
#
#  For information on this file format, follow the CIF links at
#  http://www.iucr.org
##########################################################################

data_image0

_cell_length_a                          15.0679
_cell_length_b                          15.0443
_cell_length_c                          8.11626
_cell_angle_alpha                       98.616
_cell_angle_beta                        113.879
_cell_angle_gamma                       119.968
_symmetry_space_group_name_H-M          'P 1'
_space_group_name_Hall                  'P 1'
loop_
  _atom_site_type_symbol
  _atom_site_label
  _atom_site_fract_x
  _atom_site_fract_y
  _atom_site_fract_z
  _atom_site_charge
         N         N         0.55789   0.56097   0.74503   -0.180216           
         N         N         0.45735   0.47401   0.73826   -0.177802           
         C         C         0.62589   0.53328   0.73996   0.054208  
         C         C         0.38896   0.50119   0.74383   0.051262  
         H         H         0.60077   0.44976   0.73209   0.084248  
         H         H         0.41321   0.58461   0.75394   0.086551  
         N         N         0.96219   0.51940   0.74010   -0.176672           
         N         N         0.04471   0.50454   0.73201   -0.179077           
         C         C         0.98675   0.61447   0.73435   0.048993  
         C         C         0.02250   0.41077   0.74078   0.049568  
         H         H         0.06414   0.67085   0.72370   0.087621  
         H         H         0.94608   0.35370   0.75303   0.089548  
         N         N         0.00251   0.96643   0.73964   -0.183841           
         N         N         0.01424   0.06407   0.73623   -0.183905           
         C         C         0.90907   0.89875   0.74844   0.051457  
         C         C         0.10788   0.13228   0.72875   0.056189  
         H         H         0.85144   0.92195   0.75259   0.089527  
         H         H         0.16651   0.11006   0.72623   0.090051  
         C         C         0.73580   0.61062   0.74360   0.072741  
         C         C         0.87698   0.79021   0.74965   0.067946  
         C         C         0.91284   0.64863   0.74127   0.061050  
         C         C         0.77181   0.71788   0.74834   -0.135269           
         C         C         0.94743   0.75497   0.74659   -0.140460           
         C         C         0.80630   0.57661   0.73943   -0.146017           
         H         H         0.77938   0.49413   0.73663   0.114645  
         H         H         0.71609   0.74336   0.75054   0.113687  
         H         H         0.02826   0.81149   0.74527   0.112886  
         C         C         0.27816   0.42190   0.73659   0.069176  
         C         C         0.13863   0.24049   0.72746   0.063328  
         C         C         0.09875   0.37923   0.73547   0.061239  
         C         C         0.24351   0.31453   0.72949   -0.126333           
         C         C         0.06655   0.27364   0.73055   -0.140258           
         C         C         0.20557   0.45349   0.73933   -0.147738           
         H         H         0.23037   0.53570   0.74378   0.114708  
         H         H         0.30119   0.29122   0.72896   0.113395  
         H         H         0.98620   0.21585   0.73205   0.113556  
         N         N         0.54156   0.52893   0.22813   -0.178391           
         N         N         0.44180   0.44229   0.22352   -0.179477           
         C         C         0.61408   0.50451   0.23568   0.053549  
         C         C         0.37480   0.47020   0.23375   0.053984  
         H         H         0.59431   0.42424   0.23792   0.083861  
         H         H         0.39872   0.55356   0.24522   0.085160  
         N         N         0.94969   0.49135   0.22988   -0.176609           
         N         N         0.03231   0.47665   0.22117   -0.178809           
         C         C         0.97287   0.58575   0.22275   0.049740  
         C         C         0.01394   0.38602   0.24078   0.050250  
         H         H         0.04901   0.64216   0.20967   0.087891  
         H         H         0.94021   0.33178   0.26029   0.086809  
         N         N         0.99214   0.94034   0.24589   -0.184534           
         N         N         0.00484   0.03859   0.24475   -0.185186           
         C         C         0.89625   0.87075   0.24727   0.055144  
         C         C         0.09861   0.10690   0.23750   0.052877  
         H         H         0.83719   0.89271   0.24860   0.089536  
         H         H         0.15683   0.08468   0.23271   0.089662  
         C         C         0.72440   0.58213   0.24097   0.065682  
         C         C         0.86352   0.76148   0.24467   0.065141  
         C         C         0.89951   0.61995   0.23270   0.057934  
         C         C         0.75982   0.68936   0.24662   -0.127245           
         C         C         0.93248   0.72551   0.23570   -0.138097           
         C         C         0.79516   0.54852   0.23625   -0.143981           
         H         H         0.77119   0.46694   0.23503   0.114479  
         H         H         0.70391   0.71424   0.25069   0.113386  
         H         H         0.01089   0.78109   0.22823   0.113616  
         C         C         0.26628   0.39296   0.23309   0.069571  
         C         C         0.12973   0.21500   0.23575   0.067245  
         C         C         0.08969   0.35342   0.23790   0.061345  
         C         C         0.23319   0.28721   0.23290   -0.130823           
         C         C         0.05853   0.24913   0.23929   -0.140374           
         C         C         0.19450   0.42552   0.23621   -0.144791           
         H         H         0.21723   0.50644   0.23567   0.115119  
         H         H         0.29063   0.26391   0.23115   0.113696  
         H         H         0.97982   0.19315   0.24575   0.112648 

