
##########################################################################
#               Crystallographic Information Format file
#               Produced by PyCifRW module
#
#  This is a CIF file.  CIF has been adopted by the International
#  Union of Crystallography as the standard for data archiving and
#  transmission.
#
#  For information on this file format, follow the CIF links at
#  http://www.iucr.org
##########################################################################

data_image0

_cell_length_a                          38.5696
_cell_length_b                          38.6334
_cell_length_c                          9.66315
_cell_angle_alpha                       89.2241
_cell_angle_beta                        91.4641
_cell_angle_gamma                       119.951
_symmetry_space_group_name_H-M          'P 1'
_space_group_name_Hall                  'P 1'
loop_
  _atom_site_type_symbol
  _atom_site_label
  _atom_site_fract_x
  _atom_site_fract_y
  _atom_site_fract_z
  _atom_site_charge
         C         C         0.55844   0.96899   0.32949   -0.126557           
         C         C         0.56475   0.93658   0.32796   -0.163281           
         C         C         0.51297   0.90538   0.15002   -0.178751           
         C         C         0.50726   0.93804   0.15178   -0.115823           
         C         C         0.53120   0.62237   0.16397   -0.182362           
         C         C         0.53539   0.58861   0.16548   -0.121091           
         C         C         0.48695   0.55977   0.34560   -0.118465           
         C         C         0.48226   0.59312   0.34457   -0.161460           
         H         H         0.57596   0.99367   0.40015   0.106210  
         H         H         0.58679   0.93540   0.39719   0.124094  
         H         H         0.49657   0.88150   0.07542   0.113895  
         H         H         0.48534   0.93917   0.08227   0.099307  
         H         H         0.54720   0.64596   0.08864   0.110681  
         H         H         0.55540   0.58644   0.09322   0.104314  
         H         H         0.46958   0.53526   0.41561   0.099839  
         H         H         0.46205   0.59540   0.41546   0.122854  
         C         C         0.03219   0.58820   0.32321   -0.124360           
         C         C         0.06421   0.62719   0.32367   -0.167188           
         C         C         0.09654   0.60878   0.15108   -0.182088           
         C         C         0.06406   0.57017   0.15031   -0.115118           
         C         C         0.37840   0.90967   0.17785   -0.179822           
         C         C         0.41221   0.94753   0.17377   -0.122421           
         C         C         0.44440   0.92774   0.34836   -0.122172           
         C         C         0.41089   0.88991   0.35366   -0.157985           
         H         H         0.00736   0.58023   0.39173   0.104315  
         H         H         0.06470   0.64949   0.39247   0.125123  
         H         H         0.12072   0.61709   0.07916   0.116487  
         H         H         0.06376   0.54800   0.08189   0.099752  
         H         H         0.35347   0.90220   0.10605   0.110744  
         H         H         0.41289   0.96958   0.10103   0.103978  
         H         H         0.47046   0.93456   0.41266   0.100859  
         H         H         0.41002   0.86730   0.42407   0.121928  
         C         C         0.41367   0.44243   0.32648   -0.125568           
         C         C         0.37456   0.43520   0.32543   -0.163803           
         C         C         0.39226   0.48782   0.15584   -0.181051           
         C         C         0.43107   0.49448   0.15673   -0.116743           
         C         C         0.09168   0.46786   0.17728   -0.185220           
         C         C         0.05398   0.46437   0.17247   -0.122224           
         C         C         0.07567   0.51643   0.34305   -0.118105           
         C         C         0.11349   0.52057   0.34776   -0.164231           
         H         H         0.42207   0.42481   0.39336   0.105244  
         H         H         0.35223   0.41233   0.39132   0.124071  
         H         H         0.38339   0.50410   0.08420   0.113721  
         H         H         0.45294   0.51705   0.08926   0.101905  
         H         H         0.09843   0.45017   0.10787   0.112674  
         H         H         0.03117   0.44328   0.10096   0.106557  
         H         H         0.06955   0.53558   0.40668   0.101571  
         H         H         0.13685   0.54214   0.41664   0.122310  
         C         C         0.44456   0.03165   0.32328   -0.128317           
         C         C         0.43851   0.06426   0.32352   -0.160548           
         C         C         0.49123   0.09782   0.15751   -0.175922           
         C         C         0.49697   0.06515   0.15816   -0.115828           
         C         C         0.46901   0.37816   0.18114   -0.185155           
         C         C         0.46505   0.41205   0.17802   -0.122377           
         C         C         0.51854   0.44362   0.34744   -0.118547           
         C         C         0.52304   0.41016   0.35095   -0.163676           
         H         H         0.42644   0.00593   0.38834   0.105951  
         H         H         0.41603   0.06449   0.38859   0.123610  
         H         H         0.50801   0.12253   0.08689   0.113431  
         H         H         0.51927   0.06513   0.09213   0.101265  
         H         H         0.45086   0.35335   0.11153   0.111613  
         H         H         0.44290   0.41302   0.10858   0.105117  
         H         H         0.53812   0.46928   0.41105   0.102364  
         H         H         0.54531   0.40901   0.41923   0.122532  
         C         C         0.97155   0.41299   0.32715   -0.125435           
         C         C         0.93943   0.37411   0.32930   -0.163984           
         C         C         0.90582   0.39148   0.14959   -0.180615           
         C         C         0.93822   0.43010   0.14808   -0.115115           
         C         C         0.62353   0.09098   0.17538   -0.182402           
         C         C         0.58940   0.05331   0.17318   -0.121873           
         C         C         0.56151   0.07298   0.35585   -0.116599           
         C         C         0.59533   0.11069   0.35902   -0.161296           
         H         H         0.99716   0.42133   0.39654   0.103875  
         H         H         0.93934   0.35201   0.40028   0.124602  
         H         H         0.88110   0.38277   0.07568   0.114891  
         H         H         0.93799   0.45195   0.07706   0.099423  
         H         H         0.64693   0.09837   0.10089   0.112899  
         H         H         0.58673   0.03107   0.09923   0.104185  
         H         H         0.53750   0.06584   0.42687   0.098943  
         H         H         0.59840   0.13299   0.43346   0.123531  
         C         C         0.58961   0.55736   0.32809   -0.126700           
         C         C         0.62832   0.56344   0.32618   -0.160644           
         C         C         0.60805   0.51401   0.14419   -0.178651           
         C         C         0.56959   0.50819   0.14752   -0.117618           
         C         C         0.91117   0.53372   0.16958   -0.183312           
         C         C         0.94903   0.53761   0.17156   -0.124444           
         C         C         0.92698   0.48310   0.33338   -0.120140           
         C         C         0.88898   0.47866   0.33109   -0.163105           
         H         H         0.58233   0.57405   0.40026   0.108078  
         H         H         0.65137   0.58436   0.39741   0.123681  
         H         H         0.61561   0.49852   0.06787   0.112324  
         H         H         0.54647   0.48698   0.07779   0.099484  
         H         H         0.90473   0.55253   0.10140   0.112711  
         H         H         0.97219   0.56018   0.10709   0.108963  
         H         H         0.93286   0.46316   0.39688   0.102267  
         H         H         0.86542   0.45615   0.39449   0.121212  
         C         C         0.47473   0.03175   0.24349   0.058936  
         C         C         0.46277   0.09858   0.24461   0.201206  
         N         N         0.45685   0.13131   0.25537   -0.285167           
         C         C         0.48708   0.16695   0.24061   0.064569  
         C         C         0.48322   0.20254   0.24612   0.061941  
         C         C         0.51753   0.24048   0.22967   -0.132843           
         C         C         0.51515   0.27510   0.23741   -0.104522           
         C         C         0.47813   0.27268   0.26144   0.059669  
         C         C         0.44381   0.23470   0.27717   -0.131697           
         C         C         0.44618   0.20010   0.26975   -0.104330           
         C         C         0.47414   0.30819   0.27010   0.066015  
         N         N         0.50453   0.34403   0.27092   -0.280006           
         C         C         0.49808   0.37659   0.26834   0.203321  
         C         C         0.48979   0.44573   0.26037   0.059415  
         C         C         0.48243   0.99783   0.25061   -0.031463           
         H         H         0.51756   0.17220   0.22592   0.065118  
         H         H         0.54609   0.24225   0.21076   0.107441  
         H         H         0.54137   0.30451   0.22504   0.115025  
         H         H         0.41527   0.23292   0.29621   0.106435  
         H         H         0.42006   0.17063   0.28271   0.116452  
         H         H         0.44340   0.30276   0.27871   0.064506  
         C         C         0.97123   0.44227   0.23926   0.057985  
         C         C         0.90538   0.36305   0.24372   0.204381  
         N         N         0.87306   0.32408   0.25381   -0.279288           
         C         C         0.83718   0.31875   0.24738   0.066721  
         C         C         0.80153   0.27924   0.25027   0.063198  
         C         C         0.76348   0.27605   0.25413   -0.132769           
         C         C         0.72886   0.23897   0.25779   -0.103807           
         C         C         0.73134   0.20379   0.25697   0.061566  
         C         C         0.76938   0.20700   0.25253   -0.131937           
         C         C         0.80399   0.24409   0.24959   -0.103224           
         C         C         0.69569   0.16427   0.26051   0.068048  
         N         N         0.66015   0.15909   0.27409   -0.281653           
         C         C         0.62713   0.12036   0.26908   0.200362  
         C         C         0.55730   0.04357   0.26165   0.057546  
         C         C         0.00457   0.48423   0.24605   -0.029479           
         H         H         0.83186   0.34423   0.24174   0.065269  
         H         H         0.76165   0.30328   0.25447   0.107160  
         H         H         0.69941   0.23619   0.26124   0.114997  
         H         H         0.77134   0.17984   0.25163   0.106122  
         H         H         0.83346   0.24694   0.24662   0.116142  
         H         H         0.70076   0.13871   0.25363   0.064067  
         C         C         0.55907   0.52862   0.24160   0.059586  
         C         C         0.63787   0.54090   0.23737   0.200660  
         N         N         0.67679   0.54690   0.24373   -0.281392           
         C         C         0.68170   0.51649   0.22577   0.065800  
         C         C         0.72105   0.51982   0.22595   0.063272  
         C         C         0.72387   0.48485   0.21767   -0.133243           
         C         C         0.76084   0.48683   0.22108   -0.104800           
         C         C         0.79623   0.52415   0.23226   0.062054  
         C         C         0.79340   0.55914   0.23791   -0.131930           
         C         C         0.75647   0.55713   0.23561   -0.103636           
         C         C         0.83575   0.52796   0.24031   0.066905  
         N         N         0.84127   0.49761   0.24853   -0.285895           
         C         C         0.88036   0.50410   0.24968   0.202736  
         C         C         0.95790   0.51219   0.25209   0.057785  
         C         C         0.51726   0.52019   0.25027   -0.028797           
         H         H         0.65593   0.48616   0.21300   0.064348  
         H         H         0.69651   0.45599   0.20950   0.107158  
         H         H         0.76332   0.46004   0.21575   0.115303  
         H         H         0.82082   0.58800   0.24481   0.105362  
         H         H         0.75393   0.58386   0.24177   0.116585  
         H         H         0.86112   0.55878   0.24291   0.061885  
         C         C         0.52877   0.96996   0.24397   0.057990  
         C         C         0.54114   0.90360   0.24136   0.203361  
         N         N         0.54746   0.87098   0.24636   -0.281558           
         C         C         0.51664   0.83551   0.23474   0.066958  
         C         C         0.52003   0.79964   0.23200   0.062226  
         C         C         0.48499   0.76179   0.23346   -0.130150           
         C         C         0.48723   0.72701   0.23548   -0.104570           
         C         C         0.52478   0.72917   0.23490   0.061770  
         C         C         0.55974   0.76704   0.23029   -0.132391           
         C         C         0.55755   0.80181   0.22955   -0.104601           
         C         C         0.52869   0.69355   0.24033   0.065685  
         N         N         0.49846   0.65804   0.25662   -0.281447           
         C         C         0.50463   0.62529   0.25442   0.201022  
         C         C         0.51307   0.55629   0.25519   0.059884  
         C         C         0.52080   0.00357   0.25223   -0.025840           
         H         H         0.48603   0.83078   0.23003   0.065539  
         H         H         0.45598   0.76018   0.23370   0.106927  
         H         H         0.46045   0.69769   0.23784   0.115411  
         H         H         0.58875   0.76872   0.22816   0.105524  
         H         H         0.58428   0.83117   0.22731   0.116914  
         H         H         0.55939   0.69874   0.23320   0.063068  
         C         C         0.03175   0.55841   0.23912   0.054427  
         C         C         0.09769   0.63774   0.24141   0.203301  
         N         N         0.13027   0.67673   0.24870   -0.277003           
         C         C         0.16593   0.68149   0.25473   0.066787  
         C         C         0.20199   0.72077   0.25446   0.060845  
         C         C         0.23962   0.72393   0.28154   -0.133085           
         C         C         0.27446   0.76092   0.28371   -0.103718           
         C         C         0.27268   0.79598   0.25784   0.062882  
         C         C         0.23504   0.79272   0.23010   -0.132361           
         C         C         0.20020   0.75579   0.22819   -0.102371           
         C         C         0.30829   0.83556   0.25789   0.067297  
         N         N         0.34412   0.84139   0.27824   -0.284631           
         C         C         0.37688   0.88019   0.26933   0.200554  
         C         C         0.44622   0.95754   0.25845   0.062947  
         C         C         0.99827   0.51649   0.24595   -0.029241           
         H         H         0.17056   0.65564   0.26364   0.065785  
         H         H         0.24106   0.69686   0.30181   0.106986  
         H         H         0.30354   0.76369   0.30561   0.114561  
         H         H         0.23366   0.81980   0.20987   0.105380  
         H         H         0.17110   0.75303   0.20641   0.117368  
         H         H         0.30265   0.86057   0.24031   0.061423  
         C         C         0.44316   0.47302   0.24501   0.058388  
         C         C         0.36361   0.45888   0.24420   0.203617  
         N         N         0.32462   0.45218   0.25328   -0.281907           
         C         C         0.31951   0.48282   0.24782   0.065553  
         C         C         0.28016   0.47925   0.25114   0.061781  
         C         C         0.27730   0.51428   0.25054   -0.132575           
         C         C         0.24035   0.51213   0.25611   -0.104363           
         C         C         0.20512   0.47464   0.26224   0.060934  
         C         C         0.20803   0.43966   0.26255   -0.131509           
         C         C         0.24494   0.44179   0.25688   -0.102813           
         C         C         0.16570   0.47097   0.26697   0.067374  
         N         N         0.16078   0.50165   0.27268   -0.282725           
         C         C         0.12205   0.49591   0.26612   0.203197  
         C         C         0.04499   0.48856   0.25495   0.058473  
         C         C         0.48514   0.48163   0.25210   -0.028603           
         H         H         0.34515   0.51344   0.24334   0.064557  
         H         H         0.30466   0.54318   0.24605   0.107256  
         H         H         0.23766   0.53885   0.25589   0.114966  
         H         H         0.18075   0.41073   0.26731   0.105895  
         H         H         0.24763   0.41506   0.25750   0.116516  
         H         H         0.14004   0.44030   0.26727   0.062926  
         C         C         0.55646   0.96950   0.83711   -0.125461           
         C         C         0.56295   0.93716   0.84002   -0.160515           
         C         C         0.51147   0.90456   0.66224   -0.179710           
         C         C         0.50552   0.93712   0.66008   -0.118003           
         C         C         0.52991   0.62305   0.68775   -0.186377           
         C         C         0.53377   0.58912   0.68444   -0.122458           
         C         C         0.47939   0.55581   0.84205   -0.118160           
         C         C         0.47469   0.58914   0.84410   -0.164582           
         H         H         0.57413   0.99482   0.90524   0.104297  
         H         H         0.58510   0.93667   0.91075   0.124341  
         H         H         0.49508   0.88016   0.58936   0.114406  
         H         H         0.48343   0.93749   0.58951   0.100540  
         H         H         0.54890   0.64875   0.62383   0.113807  
         H         H         0.55618   0.58886   0.61901   0.106315  
         H         H         0.45952   0.52971   0.90205   0.101855  
         H         H         0.45211   0.58967   0.90783   0.121453  
         C         C         0.03002   0.58771   0.82121   -0.125878           
         C         C         0.06245   0.62646   0.82150   -0.159496           
         C         C         0.09384   0.60762   0.64671   -0.177286           
         C         C         0.06133   0.56910   0.64738   -0.116482           
         C         C         0.37522   0.91023   0.67470   -0.185451           
         C         C         0.40925   0.94795   0.67664   -0.120619           
         C         C         0.44094   0.92493   0.84263   -0.117924           
         C         C         0.40740   0.88711   0.84048   -0.164884           
         H         H         0.00516   0.57996   0.88933   0.105283  
         H         H         0.06350   0.64905   0.89020   0.123682  
         H         H         0.11757   0.61570   0.57313   0.111927  
         H         H         0.06044   0.54673   0.57850   0.099708  
         H         H         0.35021   0.90397   0.60477   0.113781  
         H         H         0.41034   0.97138   0.60996   0.107119  
         H         H         0.46665   0.93040   0.90674   0.101902  
         H         H         0.40615   0.86318   0.90455   0.122378  
         C         C         0.41170   0.44278   0.83688   -0.125835           
         C         C         0.37257   0.43555   0.83546   -0.164410           
         C         C         0.38871   0.48343   0.64891   -0.181749           
         C         C         0.42753   0.48995   0.65046   -0.115568           
         C         C         0.08773   0.46672   0.66910   -0.181469           
         C         C         0.05017   0.46358   0.66666   -0.122514           
         C         C         0.07223   0.51416   0.84256   -0.120038           
         C         C         0.10985   0.51765   0.84599   -0.160312           
         H         H         0.42071   0.42705   0.91052   0.104027  
         H         H         0.35083   0.41459   0.90766   0.124249  
         H         H         0.37916   0.49780   0.57139   0.115364  
         H         H         0.44887   0.51060   0.57707   0.099774  
         H         H         0.09418   0.44952   0.59645   0.111802  
         H         H         0.02705   0.44298   0.59493   0.103692  
         H         H         0.06622   0.53284   0.90923   0.101079  
         H         H         0.13315   0.53827   0.91713   0.123160  
         C         C         0.44348   0.03082   0.84330   -0.126414           
         C         C         0.43677   0.06297   0.84684   -0.159699           
         C         C         0.48204   0.09365   0.65673   -0.178291           
         C         C         0.48840   0.06133   0.65415   -0.116931           
         C         C         0.46542   0.37604   0.69013   -0.185798           
         C         C         0.46145   0.40993   0.68688   -0.122200           
         C         C         0.51737   0.44275   0.84621   -0.117870           
         C         C         0.52187   0.40932   0.84964   -0.165165           
         H         H         0.42848   0.00634   0.91631   0.103072  
         H         H         0.41688   0.06408   0.92216   0.123718  
         H         H         0.49533   0.11699   0.57873   0.114724  
         H         H         0.50772   0.06018   0.57684   0.100325  
         H         H         0.44617   0.35046   0.62504   0.112042  
         H         H         0.43813   0.41012   0.62170   0.106708  
         H         H         0.53797   0.46883   0.90603   0.101415  
         H         H         0.54499   0.40867   0.91467   0.122477  
         C         C         0.96876   0.41186   0.81995   -0.123145           
         C         C         0.93719   0.37268   0.81883   -0.164844           
         C         C         0.90125   0.39156   0.65339   -0.181125           
         C         C         0.93326   0.43040   0.65373   -0.115548           
         C         C         0.62128   0.08872   0.68181   -0.180999           
         C         C         0.58706   0.05127   0.68200   -0.121661           
         C         C         0.55691   0.07444   0.84491   -0.120628           
         C         C         0.59098   0.11196   0.84598   -0.160394           
         H         H         0.99491   0.41984   0.88619   0.104593  
         H         H         0.93829   0.34999   0.88355   0.124822  
         H         H         0.87556   0.38336   0.58443   0.113469  
         H         H         0.93194   0.45271   0.58794   0.102490  
         H         H         0.64551   0.09474   0.61275   0.111872  
         H         H         0.58523   0.02779   0.61603   0.105057  
         H         H         0.53171   0.06901   0.90730   0.102054  
         H         H         0.59316   0.13566   0.91166   0.122092  
         C         C         0.58709   0.55995   0.82707   -0.123835           
         C         C         0.62644   0.56785   0.82549   -0.166922           
         C         C         0.60689   0.51482   0.65816   -0.182844           
         C         C         0.56795   0.50785   0.65893   -0.115692           
         C         C         0.90766   0.53201   0.66280   -0.181324           
         C         C         0.94520   0.53517   0.66013   -0.122593           
         C         C         0.92656   0.48719   0.84519   -0.120964           
         C         C         0.88897   0.48362   0.84844   -0.158964           
         H         H         0.57947   0.57757   0.89347   0.104238  
         H         H         0.64946   0.59118   0.89053   0.125593  
         H         H         0.61503   0.49849   0.58748   0.115740  
         H         H         0.54513   0.48482   0.59316   0.100269  
         H         H         0.89986   0.54833   0.58747   0.111732  
         H         H         0.96675   0.55443   0.58399   0.105775  
         H         H         0.93401   0.46957   0.91515   0.099518  
         H         H         0.86705   0.46402   0.92284   0.123029  
         C         C         0.47051   0.02987   0.75000   0.059224  
         C         C         0.45730   0.09578   0.75738   0.201329  
         N         N         0.45145   0.12853   0.77137   -0.281924           
         C         C         0.48128   0.16394   0.74936   0.067423  
         C         C         0.47800   0.19984   0.75727   0.062608  
         C         C         0.51152   0.23718   0.72547   -0.131849           
         C         C         0.50972   0.27211   0.73297   -0.104554           
         C         C         0.47416   0.27066   0.77311   0.059417  
         C         C         0.44061   0.23329   0.80445   -0.133009           
         C         C         0.44239   0.19836   0.79711   -0.104890           
         C         C         0.47106   0.30667   0.78250   0.064311  
         N         N         0.50169   0.34226   0.77453   -0.278586           
         C         C         0.49564   0.37505   0.77226   0.203099  
         C         C         0.48752   0.44441   0.76390   0.057433  
         C         C         0.47915   0.99646   0.75515   -0.027694           
         H         H         0.51116   0.16874   0.72591   0.064999  
         H         H         0.53901   0.23833   0.69415   0.107883  
         H         H         0.53527   0.30098   0.70772   0.116280  
         H         H         0.41317   0.23217   0.83609   0.107189  
         H         H         0.41683   0.16943   0.82204   0.117181  
         H         H         0.44089   0.30196   0.79930   0.065946  
         C         C         0.96740   0.44186   0.73907   0.057145  
         C         C         0.90233   0.36211   0.73845   0.203047  
         N         N         0.87061   0.32269   0.74388   -0.280834           
         C         C         0.83452   0.31683   0.74199   0.066178  
         C         C         0.79895   0.27729   0.73989   0.061826  
         C         C         0.76108   0.27445   0.74572   -0.130711           
         C         C         0.72622   0.23759   0.74758   -0.105060           
         C         C         0.72830   0.20224   0.74397   0.062331  
         C         C         0.76609   0.20505   0.73504   -0.133163           
         C         C         0.80098   0.24194   0.73304   -0.102491           
         C         C         0.69256   0.16299   0.75126   0.066053  
         N         N         0.65726   0.15829   0.76735   -0.285966           
         C         C         0.62403   0.11975   0.76506   0.199964  
         C         C         0.55381   0.04322   0.76218   0.058961  
         C         C         0.00118   0.48356   0.74511   -0.028265           
         H         H         0.82884   0.34206   0.74517   0.063816  
         H         H         0.75958   0.30183   0.74949   0.106347  
         H         H         0.69694   0.23510   0.75276   0.115076  
         H         H         0.76761   0.17769   0.73044   0.105757  
         H         H         0.83020   0.24429   0.72717   0.117004  
         H         H         0.69745   0.13731   0.74536   0.062686  
         C         C         0.55657   0.52896   0.74678   0.054123  
         C         C         0.63663   0.54415   0.74548   0.204686  
         N         N         0.67588   0.55110   0.75261   -0.280987           
         C         C         0.68114   0.52053   0.75668   0.067371  
         C         C         0.72057   0.52402   0.75505   0.061790  
         C         C         0.72377   0.48941   0.77396   -0.130797           
         C         C         0.76070   0.49139   0.77152   -0.104574           
         C         C         0.79574   0.52824   0.74906   0.062101  
         C         C         0.79250   0.56283   0.73023   -0.132845           
         C         C         0.75559   0.56089   0.73348   -0.102966           
         C         C         0.83513   0.53160   0.74551   0.067232  
         N         N         0.84051   0.50150   0.76758   -0.283940           
         C         C         0.87892   0.50644   0.75840   0.201028  
         C         C         0.95544   0.51259   0.75056   0.062023  
         C         C         0.51422   0.51920   0.75469   -0.031279           
         H         H         0.65555   0.48992   0.76364   0.064621  
         H         H         0.69669   0.46086   0.79060   0.106549  
         H         H         0.76342   0.46488   0.78623   0.114774  
         H         H         0.81948   0.59138   0.71277   0.105812  
         H         H         0.75286   0.58740   0.71860   0.116794  
         H         H         0.86041   0.56175   0.72591   0.062763  
         C         C         0.52659   0.96966   0.75032   0.059651  
         C         C         0.53931   0.90330   0.75698   0.202091  
         N         N         0.54497   0.87036   0.77169   -0.282955           
         C         C         0.51422   0.83488   0.75808   0.066384  
         C         C         0.51730   0.79878   0.76621   0.061642  
         C         C         0.48253   0.76107   0.74808   -0.132411           
         C         C         0.48458   0.72619   0.75259   -0.104617           
         C         C         0.52164   0.72801   0.77660   0.061637  
         C         C         0.55633   0.76566   0.79556   -0.131563           
         C         C         0.55430   0.80052   0.79066   -0.103727           
         C         C         0.52518   0.69215   0.78085   0.065247  
         N         N         0.49442   0.65656   0.77407   -0.280618           
         C         C         0.50033   0.62373   0.76857   0.202974  
         C         C         0.50870   0.55456   0.76128   0.058744  
         C         C         0.51779   0.00292   0.75583   -0.029567           
         H         H         0.48387   0.83030   0.74111   0.064401  
         H         H         0.45385   0.75959   0.72918   0.106827  
         H         H         0.45807   0.69701   0.73721   0.115129  
         H         H         0.58501   0.76711   0.81378   0.105701  
         H         H         0.58085   0.82969   0.80500   0.116838  
         H         H         0.55578   0.69699   0.79202   0.063613  
         C         C         0.02921   0.55780   0.73682   0.060360  
         C         C         0.09563   0.63675   0.73786   0.201050  
         N         N         0.12835   0.67553   0.74874   -0.283874           
         C         C         0.16391   0.68119   0.72976   0.065355  
         C         C         0.19949   0.72063   0.73639   0.063253  
         C         C         0.23740   0.72445   0.71698   -0.131877           
         C         C         0.27192   0.76157   0.72343   -0.104091           
         C         C         0.26945   0.79606   0.74910   0.060036  
         C         C         0.23156   0.79223   0.76841   -0.131906           
         C         C         0.19705   0.75510   0.76299   -0.104504           
         C         C         0.30505   0.83550   0.75658   0.066419  
         N         N         0.34079   0.84050   0.75835   -0.281734           
         C         C         0.37364   0.87921   0.75767   0.202632  
         C         C         0.44308   0.95620   0.75985   0.057399  
         C         C         0.99551   0.51617   0.74381   -0.028071           
         H         H         0.16914   0.65614   0.71092   0.064636  
         H         H         0.23930   0.69780   0.69654   0.106122  
         H         H         0.30130   0.76493   0.70848   0.114854  
         H         H         0.22975   0.81892   0.78873   0.105455  
         H         H         0.16769   0.75169   0.77883   0.116370  
         H         H         0.29993   0.86102   0.76330   0.065221  
         C         C         0.44041   0.47098   0.74693   0.057641  
         C         C         0.36090   0.45696   0.74493   0.203887  
         N         N         0.32180   0.45022   0.75165   -0.278892           
         C         C         0.31639   0.48064   0.74473   0.067394  
         C         C         0.27679   0.47682   0.74456   0.062405  
         C         C         0.27372   0.51159   0.75462   -0.130871           
         C         C         0.23663   0.50924   0.75763   -0.104690           
         C         C         0.20125   0.47185   0.74875   0.060967  
         C         C         0.20438   0.43712   0.73704   -0.132667           
         C         C         0.24149   0.43945   0.73555   -0.104829           
         C         C         0.16173   0.46822   0.75119   0.067320  
         N         N         0.15684   0.49872   0.76673   -0.282697           
         C         C         0.11826   0.49361   0.76023   0.200872  
         C         C         0.04150   0.48738   0.75243   0.060594  
         C         C         0.48269   0.48019   0.75533   -0.027975           
         H         H         0.34191   0.51136   0.74196   0.065896  
         H         H         0.30102   0.54054   0.76088   0.107112  
         H         H         0.23398   0.53585   0.76661   0.114995  
         H         H         0.17720   0.40812   0.72888   0.105787  
         H         H         0.24423   0.41286   0.72738   0.116912  
         H         H         0.13607   0.43767   0.74150   0.063622 

