
##########################################################################
#               Crystallographic Information Format file
#               Produced by PyCifRW module
#
#  This is a CIF file.  CIF has been adopted by the International
#  Union of Crystallography as the standard for data archiving and
#  transmission.
#
#  For information on this file format, follow the CIF links at
#  http://www.iucr.org
##########################################################################

data_image0

_cell_length_a                          52.4875
_cell_length_b                          52.9661
_cell_length_c                          8.08235
_cell_angle_alpha                       108.569
_cell_angle_beta                        101.296
_cell_angle_gamma                       119.663
_symmetry_space_group_name_H-M          'P 1'
_space_group_name_Hall                  'P 1'
loop_
  _atom_site_type_symbol
  _atom_site_label
  _atom_site_fract_x
  _atom_site_fract_y
  _atom_site_fract_z
  _atom_site_charge
         C         C         0.93428   0.95668   0.00852   0.178614  
         N         N         0.71647   0.88872   0.04394   -0.259947           
         C         C         0.74640   0.90221   0.03977   0.182797  
         C         C         0.76252   0.93741   0.12076   -0.188539           
         C         C         0.74168   0.94381   0.16663   -0.197705           
         C         C         0.83639   0.94237   0.96337   -0.044914           
         C         C         0.80464   0.92615   0.94398   -0.144843           
         C         C         0.95768   0.00705   0.98259   -0.224120           
         C         C         0.98472   0.00715   0.98154   0.025195  
         C         C         0.42580   0.72492   0.01280   0.168918  
         N         N         0.64183   0.79396   0.95415   -0.259772           
         C         C         0.64763   0.77062   0.90259   0.236618  
         C         C         0.61411   0.78181   0.98382   0.181752  
         C         C         0.60246   0.74931   0.95804   -0.185210           
         C         C         0.62268   0.74242   0.90598   -0.200629           
         C         C         0.51147   0.73143   0.85486   -0.060049           
         C         C         0.54296   0.74826   0.86924   -0.137951           
         O         O         0.45444   0.74694   0.00986   -0.337535           
         C         C         0.39825   0.67120   -0.00058  -0.239867           
         C         C         0.37389   0.67431   0.02933   0.031427  
         C         C         0.42299   0.69601   0.98529   0.173895  
         C         C         0.65711   0.88237   0.12349   0.240671  
         C         C         0.61825   0.83325   0.06967   0.188612  
         C         C         0.60691   0.85382   0.11087   -0.187248           
         C         C         0.63137   0.88445   0.14744   -0.201135           
         C         C         0.52767   0.78051   0.12939   -0.052839           
         C         C         0.55947   0.79674   0.14926   -0.147692           
         C         C         0.40223   0.72833   0.03436   -0.220429           
         C         C         0.37503   0.70218   0.03600   0.029654  
         C         C         0.93320   0.98187   0.99530   0.175041  
         N         N         0.70951   0.83143   0.92802   -0.401762           
         C         C         0.69891   0.79900   0.85322   0.237081  
         C         C         0.73783   0.84829   0.90993   0.196061  
         C         C         0.74472   0.82551   0.81387   -0.183387           
         C         C         0.72060   0.79495   0.78041   -0.200394           
         C         C         0.84136   0.90570   0.05895   -0.060082           
         C         C         0.81021   0.89062   0.04952   -0.137159           
         O         O         0.90500   0.97699   0.00064   -0.341433           
         C         C         0.95995   0.95577   0.00727   -0.230224           
         C         C         0.68599   0.90979   0.14928   -0.233418           
         C         C         0.67208   0.77266   0.85017   -0.232764           
         C         C         0.85526   0.93210   0.01785   -0.233708           
         B         B         0.88886   0.94804   0.01823   0.571568  
         C         C         0.60094   0.79946   0.02759   -0.072295           
         C         C         0.50297   0.74740   0.98257   -0.234239           
         C         C         0.56785   0.78137   0.01754   0.096042  
         B         B         0.46883   0.73053   0.97679   0.601692  
         C         C         0.71253   0.91307   0.12017   0.224924  
         O         O         0.90662   0.93504   0.02119   -0.338417           
         N         N         0.64868   0.85122   0.07591   -0.396520           
         O         O         0.44888   0.69835   0.95320   -0.344106           
         C         C         0.75745   0.88308   0.97474   -0.079971           
         C         C         0.79070   0.89994   0.98722   0.092015  
         C         C         0.98572   0.98123   0.99281   0.031620  
         H         H         0.39730   0.64959   0.98375   0.133879  
         H         H         0.40473   0.75062   0.04953   0.138663  
         H         H         0.23510   0.72642   0.13642   0.107021  
         H         H         0.20734   0.75250   0.15225   0.104944  
         H         H         0.30189   0.79557   0.99471   0.107161  
         H         H         0.27101   0.81842   0.98300   0.102845  
         H         H         0.78688   0.95535   0.14320   0.131904  
         H         H         0.74587   0.96765   0.22892   0.130757  
         H         H         0.84630   0.96229   0.92701   0.102910  
         H         H         0.78980   0.93279   0.88671   0.096618  
         H         H         0.95594   0.02624   0.97528   0.136064  
         H         H         0.58190   0.73393   0.98126   0.133953  
         H         H         0.62116   0.72015   0.87545   0.129012  
         H         H         0.58367   0.84613   0.11183   0.125398  
         H         H         0.63190   0.90629   0.18306   0.123537  
         H         H         0.76474   0.83197   0.77416   0.122275  
         H         H         0.71720   0.77165   0.70951   0.123050  
         H         H         0.85550   0.89745   0.10341   0.107192  
         H         H         0.80068   0.87166   0.09306   0.109268  
         H         H         0.96026   0.93620   0.02078   0.133632  
         H         H         0.68832   0.93284   0.20138   0.115156  
         H         H         0.66984   0.74965   0.79930   0.112773  
         C         C         0.06608   0.98081   0.98226   0.168525  
         N         N         0.13304   0.82800   0.94677   -0.401540           
         C         C         0.12118   0.84621   0.95567   0.196799  
         C         C         0.08968   0.82911   0.96177   -0.193690           
         C         C         0.08209   0.79964   0.94664   -0.189457           
         C         C         0.07434   0.89266   0.85518   -0.053084           
         C         C         0.08920   0.87691   0.84374   -0.129148           
         C         C         0.01369   0.95451   0.99080   -0.227881           
         C         C         0.01332   0.98107   0.98894   0.026040  
         C         C         0.29775   0.70680   0.07090   0.172211  
         N         N         0.22306   0.85126   0.07731   -0.402418           
         C         C         0.24867   0.88356   0.14277   0.230283  
         C         C         0.23660   0.83653   0.12282   0.188480  
         C         C         0.27174   0.86102   0.23532   -0.189611           
         C         C         0.27925   0.89019   0.24441   -0.209724           
         C         C         0.28096   0.78582   0.02765   -0.048626           
         C         C         0.26386   0.79913   0.02389   -0.136394           
         O         O         0.27586   0.71379   0.08256   -0.333109           
         C         C         0.34811   0.73010   0.03657   -0.228562           
         C         C         0.34844   0.70387   0.04588   0.029116  
         C         C         0.32271   0.73083   0.04834   0.167686  
         C         C         0.13459   0.76898   0.92730   0.234703  
         C         C         0.18453   0.78120   0.98869   0.186623  
         C         C         0.16181   0.74631   0.92405   -0.194452           
         C         C         0.13170   0.73918   0.89135   -0.185837           
         C         C         0.24320   0.74675   0.10360   -0.049116           
         C         C         0.22696   0.76101   0.10824   -0.144431           
         C         C         0.29681   0.68078   0.07683   -0.234864           
         C         C         0.32212   0.67853   0.05921   0.029773  
         C         C         0.03970   0.95470   0.98392   0.170392  
         N         N         0.18862   0.88345   0.01057   -0.263075           
         C         C         0.21973   0.90626   0.04023   0.227804  
         C         C         0.16954   0.89352   0.97140   0.179393  
         C         C         0.18928   0.92347   0.96357   -0.187492           
         C         C         0.21987   0.93133   0.00678   -0.201549           
         C         C         0.12560   0.94494   0.09222   -0.062922           
         C         C         0.14011   0.92885   0.08784   -0.145665           
         O         O         0.04507   0.93148   0.98133   -0.338306           
         C         C         0.06663   0.00685   0.97848   -0.232276           
         C         C         0.10964   0.77226   0.91698   -0.225352           
         C         C         0.24680   0.90705   0.10949   -0.240220           
         C         C         0.09227   0.92711   0.97790   -0.226133           
         B         B         0.07579   0.94445   0.98189   0.602608  
         C         C         0.21877   0.80184   0.06053   -0.079824           
         C         C         0.27073   0.75899   0.06529   -0.247465           
         C         C         0.23654   0.78732   0.06594   0.095458  
         B         B         0.28780   0.74249   0.06297   0.580357  
         C         C         0.10935   0.79932   0.93725   0.239120  
         O         O         0.08922   0.97505   0.98267   -0.348292           
         N         N         0.16662   0.79333   0.98129   -0.260818           
         O         O         0.31683   0.75339   0.04154   -0.339472           
         C         C         0.13767   0.87728   0.95860   -0.079712           
         C         C         0.12232   0.89443   0.96193   0.091417  
         C         C         0.03976   0.00726   0.98024   0.030491  
         H         H         0.36692   0.74896   0.01776   0.134178  
         H         H         0.27704   0.66272   0.09442   0.134205  
         H         H         0.30681   0.52855   0.27385   0.105574  
         H         H         0.27488   0.47319   0.24810   0.112474  
         H         H         0.22022   0.50457   0.87677   0.105026  
         H         H         0.19029   0.44715   0.82005   0.093355  
         H         H         0.07600   0.83889   0.98079   0.117034  
         H         H         0.06089   0.78042   0.94914   0.127802  
         H         H         0.04863   0.87823   0.76254   0.105265  
         H         H         0.07536   0.85070   0.74039   0.102404  
         H         H         0.99398   0.93411   0.99552   0.135898  
         H         H         0.28800   0.85649   0.30069   0.127375  
         H         H         0.30294   0.91405   0.31566   0.123895  
         H         H         0.16767   0.72900   0.90582   0.132817  
         H         H         0.10923   0.71547   0.84595   0.132060  
         H         H         0.18095   0.93692   0.92816   0.127413  
         H         H         0.24084   0.95242   0.01459   0.133819  
         H         H         0.14012   0.97160   0.18933   0.101523  
         H         H         0.16550   0.94289   0.18470   0.105339  
         H         H         0.08722   0.02630   0.97312   0.133436  
         H         H         0.08709   0.75036   0.89241   0.118653  
         H         H         0.26986   0.92972   0.14651   0.117609  
         C         C         0.03603   0.08411   0.94923   0.178225  
         N         N         0.18461   0.30905   0.02883   -0.255497           
         C         C         0.16830   0.28015   0.03945   0.180689  
         C         C         0.19150   0.27396   0.09499   -0.186844           
         C         C         0.22026   0.29813   0.10532   -0.209962           
         C         C         0.11196   0.17507   0.87727   -0.057989           
         C         C         0.12698   0.20663   0.89414   -0.135646           
         C         C         0.06491   0.06006   0.96160   -0.226007           
         C         C         0.03892   0.03403   0.97176   0.029225  
         C         C         0.32105   0.59859   0.06893   0.171685  
         N         N         0.16190   0.37333   0.96156   -0.258851           
         C         C         0.13130   0.36312   0.94323   0.226120  
         C         C         0.17953   0.40446   0.97724   0.184818  
         C         C         0.15863   0.41455   0.96898   -0.184835           
         C         C         0.12926   0.38921   0.94573   -0.201111           
         C         C         0.23243   0.49776   0.95782   -0.050523           
         C         C         0.21524   0.46544   0.92861   -0.148512           
         O         O         0.31561   0.57117   0.08461   -0.347320           
         C         C         0.29401   0.62446   0.05789   -0.229448           
         C         C         0.32117   0.65043   0.05541   0.033087  
         C         C         0.29445   0.59905   0.06258   0.177282  
         C         C         0.23940   0.37220   0.02533   0.235520  
         C         C         0.22816   0.40613   0.00625   0.191767  
         C         C         0.25924   0.41847   0.99531   -0.182798           
         C         C         0.26627   0.39746   0.00908   -0.200904           
         C         C         0.28105   0.51104   0.17689   -0.057649           
         C         C         0.26324   0.47950   0.15952   -0.138097           
         C         C         0.34714   0.62244   0.05762   -0.225626           
         C         C         0.34728   0.64879   0.04703   0.024147  
         C         C         0.06281   0.08432   0.94917   0.171355  
         N         N         0.13001   0.30408   0.97075   -0.396024           
         C         C         0.10526   0.30698   0.93251   0.243941  
         C         C         0.11672   0.27362   0.96262   0.188053  
         C         C         0.08205   0.25652   0.91311   -0.185440           
         C         C         0.07522   0.27754   0.89761   -0.198576           
         C         C         0.07745   0.18243   0.01051   -0.047553           
         C         C         0.09382   0.21470   0.03826   -0.150766           
         O         O         0.08468   0.11174   0.93667   -0.342602           
         C         C         0.01053   0.05957   0.96042   -0.230745           
         C         C         0.23937   0.34734   0.05110   -0.235598           
         C         C         0.10644   0.33358   0.92626   -0.231193           
         C         C         0.08658   0.16200   0.93326   -0.237071           
         B         B         0.07054   0.12837   0.93067   0.583251  
         C         C         0.21209   0.42124   0.00143   -0.075979           
         C         C         0.26598   0.52097   0.07787   -0.232002           
         C         C         0.23007   0.45535   0.02862   0.090219  
         B         B         0.28450   0.55460   0.08199   0.584767  
         C         C         0.21599   0.32039   0.06247   0.235439  
         O         O         0.04022   0.11118   0.93633   -0.337298           
         N         N         0.21625   0.37754   0.01935   -0.398913           
         O         O         0.27104   0.57143   0.06605   -0.340919           
         C         C         0.13483   0.26127   -0.00313  -0.078593           
         C         C         0.11877   0.22768   0.97871   0.101170  
         C         C         0.01155   0.03381   0.97141   0.036104  
         H         H         0.27324   0.62421   0.05735   0.137386  
         H         H         0.36716   0.62110   0.06005   0.136016  
         H         H         0.52212   0.79346   0.23310   0.101009  
         H         H         0.57824   0.82156   0.26973   0.103693  
         H         H         0.49285   0.70609   0.73746   0.107090  
         H         H         0.54834   0.73612   0.76089   0.096174  
         H         H         0.18669   0.25409   0.12652   0.134888  
         H         H         0.24281   0.30090   0.14186   0.129534  
         H         H         0.11927   0.15982   0.81330   0.107607  
         H         H         0.14477   0.21487   0.83631   0.095124  
         H         H         0.08596   0.06096   0.96063   0.134955  
         H         H         0.16550   0.43838   0.98498   0.132689  
         H         H         0.10800   0.38853   0.93490   0.130792  
         H         H         0.27301   0.43945   0.97345   0.120239  
         H         H         0.28711   0.39826   0.00379   0.123405  
         H         H         0.06513   0.23191   0.89150   0.126866  
         H         H         0.05206   0.27354   0.86321   0.124067  
         H         H         0.05810   0.17333   0.05686   0.106592  
         H         H         0.08775   0.23047   0.11171   0.101215  
         H         H         0.99017   0.06020   0.95918   0.137182  
         H         H         0.26148   0.34931   0.06665   0.112725  
         H         H         0.08391   0.33094   0.90454   0.114751  
         H         H         0.17887   0.86137   0.01354   0.268756  
         H         H         0.17760   0.81765   0.01223   0.270850  
         H         H         0.68027   0.85264   0.52273   0.269639  
         H         H         0.65532   0.81808   0.97789   0.272826  
         H         H         0.17297   0.36199   0.97400   0.271427  
         H         H         0.15545   0.30214   0.50189   0.269706  
         C         C         0.91169   0.94214   0.51781   0.169116  
         N         N         0.69587   0.87735   0.55988   -0.259451           
         C         C         0.72538   0.88911   0.55163   0.187126  
         C         C         0.74231   0.92428   0.62264   -0.194599           
         C         C         0.72209   0.93211   0.66273   -0.193675           
         C         C         0.81260   0.92594   0.45754   -0.048940           
         C         C         0.78086   0.90963   0.43791   -0.152455           
         C         C         0.93531   0.99265   0.49380   -0.237608           
         C         C         0.96195   0.99216   0.48789   0.032432  
         C         C         0.40258   0.71468   0.52757   0.179309  
         N         N         0.61968   0.78567   0.48440   -0.260716           
         C         C         0.62431   0.76133   0.43820   0.224214  
         C         C         0.59175   0.77495   0.51164   0.184632  
         C         C         0.57843   0.74217   0.48646   -0.188468           
         C         C         0.59819   0.73395   0.44126   -0.196570           
         C         C         0.49030   0.72727   0.38447   -0.071225           
         C         C         0.52143   0.74405   0.39336   -0.136674           
         O         O         0.43051   0.73831   0.52578   -0.339168           
         C         C         0.37928   0.66196   0.52507   -0.224992           
         C         C         0.35273   0.66173   0.54149   0.026887  
         C         C         0.40333   0.68820   0.51646   0.168702  
         C         C         0.63736   0.87497   0.63140   0.234578  
         C         C         0.59816   0.82748   0.59370   0.192380  
         C         C         0.58729   0.84851   0.62297   -0.186800           
         C         C         0.61192   0.87817   0.64893   -0.201657           
         C         C         0.50679   0.77673   0.65727   -0.053286           
         C         C         0.53847   0.79264   0.67520   -0.139489           
         C         C         0.37681   0.71489   0.53650   -0.231513           
         C         C         0.35103   0.68783   0.54071   0.032511  
         C         C         0.91081   0.96764   0.50765   0.177747  
         N         N         0.68615   0.81859   0.44470   -0.396816           
         C         C         0.67485   0.78611   0.37869   0.241868  
         C         C         0.71372   0.83365   0.41673   0.194407  
         C         C         0.71883   0.80934   0.31818   -0.184304           
         C         C         0.69499   0.77996   0.29907   -0.204100           
         C         C         0.81723   0.88849   0.54571   -0.051094           
         C         C         0.78592   0.87305   0.53368   -0.134177           
         O         O         0.88275   0.96286   0.51424   -0.335430           
         C         C         0.93702   0.94081   0.51316   -0.221506           
         C         C         0.66642   0.90095   0.64883   -0.239887           
         C         C         0.64820   0.76145   0.38693   -0.234771           
         C         C         0.83158   0.91579   0.51220   -0.238075           
         B         B         0.86588   0.93311   0.52278   0.580529  
         C         C         0.57981   0.79388   0.55436   -0.072207           
         C         C         0.48210   0.74341   0.51340   -0.224983           
         C         C         0.54659   0.77692   0.54275   0.083134  
         B         B         0.44804   0.72521   0.50889   0.595690  
         C         C         0.69263   0.90249   0.62449   0.238323  
         O         O         0.88404   0.92056   0.53105   -0.340700           
         N         N         0.62846   0.84408   0.59677   -0.403589           
         O         O         0.43133   0.69389   0.50073   -0.348564           
         C         C         0.73453   0.86828   0.47994   -0.078447           
         C         C         0.76691   0.88332   0.48003   0.101063  
         C         C         0.96271   0.96598   0.49633   0.027271  
         H         H         0.38082   0.64196   0.51698   0.135921  
         H         H         0.37678   0.73550   0.54018   0.135540  
         H         H         0.20268   0.70596   0.63499   0.104684  
         H         H         0.17758   0.73469   0.63467   0.096126  
         H         H         0.27596   0.77370   0.51681   0.107175  
         H         H         0.24839   0.79935   0.49162   0.106725  
         H         H         0.76661   0.94126   0.64049   0.132686  
         H         H         0.72699   0.95631   0.71683   0.129363  
         H         H         0.82266   0.94628   0.42462   0.103242  
         H         H         0.76640   0.91698   0.38619   0.097447  
         H         H         0.93383   0.01208   0.48808   0.134720  
         H         H         0.55683   0.72722   0.50289   0.128196  
         H         H         0.59544   0.71115   0.41399   0.131923  
         H         H         0.56388   0.84132   0.61907   0.123670  
         H         H         0.61274   0.89997   0.67343   0.123540  
         H         H         0.73737   0.81408   0.26623   0.128899  
         H         H         0.69065   0.75606   0.23279   0.118974  
         H         H         0.83126   0.88009   0.58879   0.106725  
         H         H         0.77620   0.85358   0.57322   0.100511  
         H         H         0.93724   0.92114   0.52572   0.135578  
         H         H         0.66931   0.92421   0.68835   0.116442  
         H         H         0.64506   0.73801   0.34310   0.115017  
         C         C         0.04269   0.96530   0.47800   0.171423  
         N         N         0.10787   0.81092   0.41835   -0.400457           
         C         C         0.09584   0.82894   0.42535   0.181825  
         C         C         0.06302   0.81030   0.41249   -0.194626           
         C         C         0.05513   0.78032   0.38968   -0.200861           
         C         C         0.05066   0.87676   0.31366   -0.059508           
         C         C         0.06533   0.86079   0.30362   -0.142149           
         C         C         0.98994   0.93819   0.48238   -0.231787           
         C         C         0.98983   0.96522   0.48686   0.031118  
         C         C         0.27065   0.68627   0.57652   0.166935  
         N         N         0.19740   0.83228   0.53497   -0.404333           
         C         C         0.22270   0.86373   0.58406   0.239438  
         C         C         0.21137   0.81838   0.58967   0.192715  
         C         C         0.24664   0.84303   0.69252   -0.183149           
         C         C         0.25368   0.87081   0.68240   -0.197036           
         C         C         0.25413   0.76472   0.54081   -0.052933           
         C         C         0.23884   0.77974   0.53002   -0.136165           
         O         O         0.24787   0.69202   0.59179   -0.338963           
         C         C         0.32073   0.71217   0.54022   -0.229899           
         C         C         0.32297   0.68682   0.54705   0.028104  
         C         C         0.29472   0.71131   0.55520   0.176875  
         C         C         0.10864   0.75069   0.37826   0.227322  
         C         C         0.15897   0.76343   0.45494   0.184396  
         C         C         0.13593   0.72802   0.37122   -0.193111           
         C         C         0.10547   0.72044   0.32815   -0.203449           
         C         C         0.21287   0.72645   0.60348   -0.049681           
         C         C         0.19826   0.74230   0.59986   -0.147387           
         C         C         0.27149   0.66084   0.57926   -0.230867           
         C         C         0.29766   0.66038   0.56016   0.028729  
         C         C         0.01610   0.93867   0.47519   0.168948  
         N         N         0.16345   0.86585   0.47930   -0.258889           
         C         C         0.19390   0.88747   0.49551   0.230792  
         C         C         0.14495   0.87688   0.45088   0.184491  
         C         C         0.16451   0.90673   0.44139   -0.189546           
         C         C         0.19428   0.91317   0.46882   -0.189794           
         C         C         0.10094   0.92801   0.57037   -0.055501           
         C         C         0.11512   0.91166   0.56662   -0.135594           
         O         O         0.02133   0.91502   0.46363   -0.347242           
         C         C         0.04311   0.99127   0.47584   -0.232930           
         C         C         0.08341   0.75363   0.36387   -0.245030           
         C         C         0.22046   0.88685   0.54751   -0.228906           
         C         C         0.06816   0.91069   0.44727   -0.229887           
         B         B         0.05193   0.92828   0.46110   0.606596  
         C         C         0.19339   0.78402   0.53706   -0.078179           
         C         C         0.24124   0.73730   0.57378   -0.239796           
         C         C         0.21027   0.76887   0.55801   0.087600  
         B         B         0.25847   0.72086   0.57449   0.579454  
         C         C         0.08333   0.78107   0.39283   0.238115  
         O         O         0.06578   0.95972   0.47442   -0.342128           
         N         N         0.14116   0.77572   0.44976   -0.258488           
         O         O         0.28754   0.73306   0.55251   -0.337071           
         C         C         0.11299   0.86059   0.43587   -0.078274           
         C         C         0.09768   0.87767   0.43356   0.095940  
         C         C         0.01629   0.99153   0.47949   0.028549  
         H         H         0.33888   0.73200   0.52395   0.134590  
         H         H         0.25258   0.64193   0.59735   0.134741  
         H         H         0.29412   0.51191   0.75832   0.106342  
         H         H         0.26372   0.45670   0.73459   0.102541  
         H         H         0.20616   0.48524   0.35838   0.100567  
         H         H         0.17719   0.42869   0.31382   0.095759  
         H         H         0.04813   0.81886   0.41978   0.121024  
         H         H         0.03275   0.75980   0.37502   0.125065  
         H         H         0.02540   0.86288   0.21435   0.102422  
         H         H         0.05172   0.83490   0.19466   0.109231  
         H         H         0.96989   0.91730   0.48194   0.137074  
         H         H         0.26349   0.83987   0.76633   0.122463  
         H         H         0.27730   0.89422   0.74025   0.124736  
         H         H         0.14194   0.71076   0.34533   0.135292  
         H         H         0.08257   0.69612   0.26526   0.130746  
         H         H         0.15626   0.92067   0.41302   0.126184  
         H         H         0.21484   0.93360   0.46933   0.133303  
         H         H         0.11500   0.95421   0.67602   0.104730  
         H         H         0.13977   0.92496   0.67211   0.100893  
         H         H         0.06352   0.01068   0.46936   0.135181  
         H         H         0.06019   0.73086   0.32404   0.116683  
         H         H         0.24312   0.90843   0.57045   0.118614  
         C         C         0.01329   0.06865   0.45367   0.173504  
         N         N         0.16630   0.29128   0.53036   -0.263331           
         C         C         0.14886   0.26258   0.54176   0.185776  
         C         C         0.17093   0.25516   0.59830   -0.183522           
         C         C         0.20024   0.27844   0.60943   -0.199381           
         C         C         0.09044   0.15848   0.38812   -0.062042           
         C         C         0.10625   0.18974   0.40163   -0.144473           
         C         C         0.04187   0.04434   0.46401   -0.225912           
         C         C         0.01571   0.01844   0.47369   0.029691  
         C         C         0.30414   0.58420   0.57466   0.172580  
         N         N         0.14812   0.35791   0.46603   -0.253502           
         C         C         0.11758   0.34866   0.44258   0.229573  
         C         C         0.16726   0.38934   0.48744   0.180940  
         C         C         0.14774   0.40108   0.48377   -0.192755           
         C         C         0.11747   0.37610   0.45290   -0.200709           
         C         C         0.21905   0.47909   0.44058   -0.058418           
         C         C         0.20241   0.44715   0.41761   -0.145699           
         O         O         0.30126   0.55776   0.59126   -0.342906           
         C         C         0.27278   0.60550   0.55282   -0.221989           
         C         C         0.29907   0.63335   0.55674   0.033493  
         C         C         0.27570   0.58141   0.55904   0.174795  
         C         C         0.22339   0.35312   0.52826   0.247545  
         C         C         0.21413   0.38809   0.50574   0.191941  
         C         C         0.24498   0.39901   0.49357   -0.180087           
         C         C         0.25092   0.37749   0.51148   -0.200129           
         C         C         0.26838   0.49383   0.66084   -0.060365           
         C         C         0.25131   0.46234   0.64521   -0.125122           
         C         C         0.32936   0.60975   0.56773   -0.231913           
         C         C         0.32689   0.63468   0.55471   0.031463  
         C         C         0.03997   0.06870   0.45302   0.174599  
         N         N         0.11246   0.28821   0.46681   -0.402583           
         C         C         0.08797   0.29100   0.41222   0.233484  
         C         C         0.09793   0.25720   0.45159   0.192514  
         C         C         0.06274   0.23922   0.37607   -0.191320           
         C         C         0.05675   0.26058   0.35534   -0.202031           
         C         C         0.05553   0.16712   0.51110   -0.044816           
         C         C         0.07244   0.19905   0.53392   -0.141036           
         O         O         0.06213   0.09624   0.44315   -0.344983           
         C         C         0.98774   0.04432   0.46500   -0.222413           
         C         C         0.22187   0.32776   0.55566   -0.230544           
         C         C         0.09094   0.31864   0.41068   -0.235441           
         C         C         0.06455   0.14637   0.44061   -0.228315           
         B         B         0.04807   0.11288   0.43719   0.578206  
         C         C         0.19943   0.40451   0.50417   -0.073201           
         C         C         0.25256   0.50320   0.56126   -0.231343           
         C         C         0.21784   0.43795   0.52123   0.094189  
         B         B         0.26946   0.53757   0.57264   0.596265  
         C         C         0.19745   0.30137   0.56565   0.229876  
         O         O         0.01772   0.09596   0.44257   -0.342446           
         N         N         0.20104   0.35956   0.52009   -0.399782           
         O         O         0.25356   0.55223   0.55511   -0.339322           
         C         C         0.11531   0.24460   0.49561   -0.076273           
         C         C         0.09816   0.21125   0.47952   0.086794  
         C         C         0.98858   0.01848   0.47520   0.023440  
         H         H         0.25068   0.60290   0.54523   0.135634  
         H         H         0.35082   0.61089   0.57653   0.134037  
         H         H         0.50139   0.78969   0.76200   0.105040  
         H         H         0.55759   0.81740   0.79596   0.100840  
         H         H         0.47186   0.70162   0.27093   0.102662  
         H         H         0.52644   0.73193   0.28228   0.107774  
         H         H         0.16523   0.23511   0.62950   0.129312  
         H         H         0.22224   0.28021   0.64734   0.130307  
         H         H         0.09778   0.14282   0.33206   0.103200  
         H         H         0.12460   0.19756   0.34752   0.106193  
         H         H         0.06286   0.04516   0.46260   0.135087  
         H         H         0.15580   0.42537   0.50286   0.134075  
         H         H         0.09678   0.37652   0.44158   0.129625  
         H         H         0.25927   0.41945   0.46870   0.126588  
         H         H         0.27140   0.37734   0.50863   0.119976  
         H         H         0.04509   0.21371   0.33945   0.128588  
         H         H         0.03349   0.25615   0.30301   0.122512  
         H         H         0.03598   0.15858   0.55642   0.103755  
         H         H         0.06651   0.21544   0.60059   0.098831  
         H         H         0.96764   0.04537   0.46537   0.135667  
         H         H         0.24346   0.32864   0.57344   0.114820  
         H         H         0.06866   0.31665   0.37958   0.113991  
         H         H         0.15340   0.84339   0.47774   0.270207  
         H         H         0.15239   0.80033   0.48671   0.273002  
         H         H         0.70175   0.86378   0.00484   0.270169  
         H         H         0.63420   0.80959   0.50653   0.267592  
         H         H         0.15801   0.34534   0.47244   0.270739  
         H         H         0.17266   0.31895   -0.00011  0.271192 

