
##########################################################################
#               Crystallographic Information Format file
#               Produced by PyCifRW module
#
#  This is a CIF file.  CIF has been adopted by the International
#  Union of Crystallography as the standard for data archiving and
#  transmission.
#
#  For information on this file format, follow the CIF links at
#  http://www.iucr.org
##########################################################################

data_image0

_cell_length_a                          44.7279
_cell_length_b                          44.6546
_cell_length_c                          7.99328
_cell_angle_alpha                       98.9819
_cell_angle_beta                        66.9142
_cell_angle_gamma                       60.9184
_symmetry_space_group_name_H-M          'P 1'
_space_group_name_Hall                  'P 1'
loop_
  _atom_site_type_symbol
  _atom_site_label
  _atom_site_fract_x
  _atom_site_fract_y
  _atom_site_fract_z
  _atom_site_charge
         C         C         0.48683   0.54323   0.72369   0.204701  
         C         C         0.52168   0.51958   0.72761   -0.091209           
         C         C         0.52974   0.48589   0.74112   -0.223941           
         C         C         0.50491   0.47514   0.75030   0.205189  
         C         C         0.47022   0.49855   0.74406   -0.101007           
         C         C         0.46198   0.53248   0.73213   -0.223908           
         H         H         0.55644   0.46890   0.74709   0.129815  
         H         H         0.43561   0.54924   0.72323   0.129545  
         C         C         0.44235   0.48996   0.73055   0.455312  
         O         O         0.41680   0.50981   0.69496   -0.460318           
         C         C         0.55138   0.52641   0.72822   0.454695  
         O         O         0.57866   0.50469   0.74900   -0.449010           
         N         N         0.44952   0.45739   0.74983   -0.225839           
         H         H         0.46942   0.44445   0.79310   0.240874  
         N         N         0.54496   0.55936   0.71380   -0.231751           
         H         H         0.52332   0.57488   0.68421   0.245288  
         O         O         0.51331   0.44186   0.76532   -0.217955           
         O         O         0.47894   0.57649   0.71021   -0.219234           
         C         C         0.55251   0.38215   0.76727   -0.416909           
         C         C         0.55129   0.41593   0.74782   0.076713  
         H         H         0.58041   0.36196   0.75998   0.136334  
         H         H         0.55220   0.36726   0.64584   0.127760  
         H         H         0.52633   0.39148   0.91263   0.131282  
         H         H         0.57670   0.40772   0.60174   0.074976  
         H         H         0.55216   0.43051   0.86800   0.066606  
         C         C         0.44200   0.63537   0.69643   -0.414900           
         C         C         0.44214   0.60213   0.71773   0.075810  
         H         H         0.41495   0.65552   0.69729   0.136347  
         H         H         0.46916   0.62556   0.55421   0.130053  
         H         H         0.44138   0.65061   0.82092   0.128034  
         H         H         0.44226   0.58713   0.59455   0.065895  
         H         H         0.41566   0.61112   0.86155   0.071411  
         N         N         0.57031   0.56759   0.71379   -0.093718           
         C         C         0.56191   0.59937   0.70634   -0.029132           
         H         H         0.53523   0.61907   0.70319   0.080041  
         N         N         0.43186   0.44201   0.71221   -0.112727           
         C         C         0.44276   0.41106   0.73739   -0.019225           
         H         H         0.46408   0.39975   0.78669   0.074388  
         C         C         0.99818   0.48084   0.65481   0.209129  
         C         C         0.98819   0.51582   0.64942   -0.107660           
         C         C         0.01269   0.52621   0.65984   -0.227809           
         C         C         0.04565   0.50350   0.67388   0.198498  
         C         C         0.05610   0.46815   0.67527   -0.093813           
         C         C         0.03195   0.45771   0.66378   -0.197651           
         H         H         0.00370   0.55346   0.65801   0.126198  
         H         H         0.04161   0.42998   0.65956   0.132945  
         C         C         0.09138   0.43882   0.68089   0.443828  
         O         O         0.09848   0.40794   0.66706   -0.442780           
         C         C         0.95419   0.54413   0.63276   0.455516  
         O         O         0.95019   0.57266   0.61709   -0.456541           
         N         N         0.11465   0.44917   0.70464   -0.246830           
         H         H         0.10792   0.47463   0.70421   0.237163  
         N         N         0.92876   0.53488   0.63305   -0.225281           
         H         H         0.93519   0.51020   0.64527   0.234872  
         O         O         0.06963   0.51402   0.68481   -0.220616           
         O         O         0.97416   0.47026   0.64954   -0.214943           
         C         C         0.09461   0.55085   0.65422   -0.415698           
         C         C         0.06263   0.54722   0.65422   0.075580  
         H         H         0.09211   0.57428   0.61677   0.139273  
         H         H         0.12537   0.52462   0.54216   0.131018  
         H         H         0.09072   0.55681   0.80277   0.126136  
         H         H         0.06488   0.54356   0.50934   0.055184  
         H         H         0.03156   0.57240   0.77350   0.077977  
         C         C         0.95231   0.43110   0.65919   -0.407361           
         C         C         0.98618   0.43325   0.64164   0.074472  
         H         H         0.95860   0.40435   0.66478   0.136519  
         H         H         0.94943   0.43224   0.52976   0.119205  
         H         H         0.92302   0.45480   0.79695   0.126487  
         H         H         0.01551   0.41141   0.49903   0.094266  
         H         H         0.98977   0.43073   0.76811   0.067326  
         N         N         0.89661   0.55698   0.61989   -0.081407           
         C         C         0.87572   0.54437   0.62236   -0.028343           
         H         H         0.88422   0.51751   0.63384   0.069588  
         N         N         0.14891   0.42371   0.69540   -0.087352           
         C         C         0.17039   0.43473   0.70630   -0.031655           
         H         H         0.16101   0.46343   0.72458   0.067594  
         C         C         0.53953   0.96172   0.66518   0.194303  
         C         C         0.51296   0.95147   0.70300   -0.100629           
         C         C         0.47673   0.97554   0.71296   -0.224020           
         C         C         0.46582   0.00914   0.69273   0.205165  
         C         C         0.49219   0.01951   0.65721   -0.117755           
         C         C         0.52856   0.99527   0.64553   -0.225108           
         H         H         0.45796   0.96588   0.73544   0.136928  
         H         H         0.54766   0.00456   0.62053   0.132206  
         C         C         0.48725   0.05329   0.62296   0.442363  
         O         O         0.51493   0.05658   0.57373   -0.447103           
         C         C         0.51851   0.91705   0.73413   0.436321  
         O         O         0.49388   0.91045   0.75634   -0.439990           
         N         N         0.45043   0.08007   0.64891   -0.238332           
         H         H         0.43083   0.07332   0.66569   0.240307  
         N         N         0.55299   0.89448   0.73650   -0.242375           
         H         H         0.57092   0.90321   0.72158   0.229896  
         O         O         0.42948   0.03358   0.71007   -0.224962           
         O         O         0.57660   0.93727   0.64320   -0.222800           
         C         C         0.36911   0.05231   0.71841   -0.414061           
         C         C         0.40542   0.02051   0.70980   0.071912  
         H         H         0.35095   0.04330   0.70472   0.141758  
         H         H         0.37938   0.05982   0.59430   0.125526  
         H         H         0.34930   0.07794   0.86052   0.123197  
         H         H         0.42430   0.99406   0.57281   0.090071  
         H         H         0.39569   0.01462   0.84179   0.070161  
         C         C         0.63899   0.91835   0.61246   -0.416258           
         C         C         0.60116   0.95017   0.63164   0.074545  
         H         H         0.65822   0.92704   0.61067   0.139056  
         H         H         0.65708   0.89270   0.47280   0.134909  
         H         H         0.63069   0.91120   0.74032   0.125147  
         H         H         0.60915   0.95655   0.50032   0.067205  
         H         H         0.58309   0.97657   0.76753   0.071875  
         N         N         0.56455   0.86070   0.74501   -0.089169           
         C         C         0.59658   0.84375   0.75541   -0.014220           
         H         H         0.61138   0.85719   0.76392   0.065250  
         N         N         0.44381   0.11203   0.63077   -0.087782           
         C         C         0.41194   0.13453   0.62760   -0.023066           
         H         H         0.39079   0.12814   0.63402   0.071910  
         C         C         0.57516   0.64710   0.72963   -0.132759           
         C         C         0.60064   0.65728   0.71247   -0.125013           
         H         H         0.54474   0.66798   0.76477   0.108284  
         H         H         0.59038   0.68615   0.73830   0.110562  
         C         C         0.81563   0.55238   0.64124   -0.145719           
         C         C         0.77796   0.57420   0.66341   -0.127736           
         H         H         0.82641   0.52531   0.65032   0.095460  
         H         H         0.75921   0.56442   0.68896   0.111989  
         C         C         0.64692   0.79180   0.78698   -0.138043           
         C         C         0.66383   0.75725   0.79955   -0.126646           
         H         H         0.65874   0.80774   0.80115   0.095027  
         H         H         0.68923   0.74587   0.81963   0.106698  
         C         C         0.60016   0.78542   0.73414   -0.110275           
         C         C         0.61710   0.75103   0.74621   -0.137191           
         H         H         0.57554   0.79668   0.70816   0.118841  
         H         H         0.60603   0.73458   0.72685   0.101421  
         C         C         0.82483   0.60093   0.60945   -0.101751           
         C         C         0.78704   0.62284   0.63534   -0.118992           
         H         H         0.84363   0.61061   0.58517   0.127314  
         H         H         0.77552   0.65025   0.63041   0.113226  
         C         C         0.62812   0.58276   0.64998   -0.112241           
         C         C         0.65390   0.59263   0.62917   -0.123593           
         H         H         0.63803   0.55407   0.62670   0.122627  
         H         H         0.68473   0.57182   0.58938   0.115210  
         C         C         0.66729   0.69906   0.78323   -0.034947           
         C         C         0.61441   0.80692   0.75807   0.058427  
         C         C         0.64864   0.73646   0.78430   0.088291  
         C         C         0.66654   0.64094   0.64216   0.019982  
         C         C         0.58845   0.60977   0.69757   0.069439  
         C         C         0.64058   0.62995   0.65854   0.082494  
         C         C         0.72139   0.63736   0.71647   -0.030142           
         C         C         0.83901   0.56587   0.62090   0.068576  
         C         C         0.76217   0.61068   0.67082   0.079471  
         C         C         0.69505   0.67845   0.84928   0.003027  
         C         C         0.66379   0.67306   0.69507   -0.031755           
         C         C         0.69996   0.63129   0.65069   -0.048228           
         C         C         0.44635   0.35357   0.70055   -0.135221           
         C         C         0.43186   0.33295   0.67703   -0.124405           
         H         H         0.47219   0.34177   0.71736   0.101922  
         H         H         0.44635   0.30486   0.67403   0.108434  
         C         C         0.23456   0.42007   0.66397   -0.137792           
         C         C         0.27408   0.39457   0.61498   -0.116726           
         H         H         0.22298   0.44917   0.68666   0.102758  
         H         H         0.29340   0.40343   0.60102   0.113152  
         C         C         0.36972   0.19463   0.60849   -0.139701           
         C         C         0.36040   0.22924   0.60840   -0.130204           
         H         H         0.35063   0.18657   0.60270   0.096171  
         H         H         0.33422   0.24828   0.60261   0.108484  
         C         C         0.42826   0.18037   0.62089   -0.094331           
         C         C         0.41860   0.21502   0.62382   -0.116870           
         H         H         0.45482   0.16080   0.62251   0.123414  
         H         H         0.43774   0.22312   0.62764   0.106934  
         C         C         0.22551   0.37062   0.64669   -0.104572           
         C         C         0.26496   0.34511   0.59771   -0.117390           
         H         H         0.20625   0.36178   0.65843   0.124219  
         H         H         0.27719   0.31578   0.57150   0.115755  
         C         C         0.39424   0.40498   0.68231   -0.124018           
         C         C         0.37985   0.38433   0.65866   -0.122389           
         H         H         0.37988   0.43312   0.68583   0.117960  
         H         H         0.35380   0.39610   0.64347   0.110364  
         C         C         0.37489   0.27690   0.63015   -0.036077           
         C         C         0.40331   0.16988   0.61782   0.070627  
         C         C         0.38395   0.24071   0.62349   0.079877  
         C         C         0.38204   0.32702   0.64526   -0.045170           
         C         C         0.42761   0.39003   0.70516   0.054680  
         C         C         0.39766   0.34831   0.66152   0.077217  
         C         C         0.33051   0.33074   0.53631   0.031106  
         C         C         0.20976   0.40853   0.67755   0.066083  
         C         C         0.28993   0.35665   0.57984   0.082759  
         C         C         0.35430   0.29878   0.55465   -0.042406           
         C         C         0.38475   0.29885   0.72634   -0.008250           
         C         C         0.35888   0.33086   0.56475   -0.052293           
         C         C         0.48088   0.53843   0.22803   0.198554  
         C         C         0.51597   0.51545   0.23196   -0.105339           
         C         C         0.52491   0.48135   0.24416   -0.223910           
         C         C         0.50070   0.46975   0.25243   0.204773  
         C         C         0.46576   0.49274   0.24763   -0.084726           
         C         C         0.45675   0.52680   0.23641   -0.223159           
         H         H         0.55146   0.46504   0.25242   0.129706  
         H         H         0.43008   0.54316   0.22938   0.130847  
         C         C         0.43771   0.48425   0.23637   0.454515  
         O         O         0.41278   0.50400   0.19740   -0.454045           
         C         C         0.54410   0.52420   0.23929   0.450286  
         O         O         0.56976   0.50477   0.27496   -0.451498           
         N         N         0.44285   0.45236   0.26091   -0.229948           
         H         H         0.46084   0.43924   0.31335   0.249284  
         N         N         0.53793   0.55604   0.21059   -0.223350           
         H         H         0.51737   0.56939   0.17142   0.240460  
         O         O         0.50936   0.43632   0.26548   -0.221009           
         O         O         0.47139   0.57224   0.21645   -0.222752           
         C         C         0.54849   0.37715   0.27332   -0.412228           
         C         C         0.54682   0.41112   0.25392   0.077414  
         H         H         0.57623   0.35737   0.26844   0.134300  
         H         H         0.54889   0.36177   0.15028   0.131382  
         H         H         0.52208   0.38615   0.41671   0.128189  
         H         H         0.57267   0.40280   0.10920   0.070826  
         H         H         0.54683   0.42629   0.37608   0.064394  
         C         C         0.43050   0.63182   0.21740   -0.415868           
         C         C         0.43332   0.59718   0.23231   0.077836  
         H         H         0.40260   0.65129   0.22271   0.135163  
         H         H         0.45662   0.62328   0.07418   0.128029  
         H         H         0.42978   0.64721   0.34182   0.127628  
         H         H         0.43330   0.58211   0.10975   0.067190  
         H         H         0.40806   0.60460   0.37651   0.076419  
         N         N         0.55848   0.56914   0.23240   -0.104658           
         C         C         0.55068   0.59874   0.19728   -0.021980           
         H         H         0.52894   0.61182   0.15207   0.074123  
         N         N         0.42183   0.44087   0.22801   -0.102833           
         C         C         0.42788   0.41065   0.25097   -0.024826           
         H         H         0.44887   0.39501   0.29617   0.080876  
         C         C         0.96532   0.48834   0.14451   0.193502  
         C         C         0.95585   0.52330   0.13993   -0.087415           
         C         C         0.98064   0.53298   0.14923   -0.202287           
         C         C         0.01404   0.50973   0.16004   0.211534  
         C         C         0.02361   0.47477   0.16430   -0.112583           
         C         C         0.99858   0.46499   0.15513   -0.228351           
         H         H         0.97169   0.56037   0.14996   0.132502  
         H         H         0.00715   0.43782   0.15724   0.128383  
         C         C         0.05739   0.44609   0.18054   0.455776  
         O         O         0.06123   0.41752   0.19486   -0.457224           
         C         C         0.92138   0.55303   0.13079   0.440486  
         O         O         0.91735   0.58215   0.12593   -0.449581           
         N         N         0.08285   0.45518   0.18115   -0.227089           
         H         H         0.07570   0.48049   0.17596   0.233982  
         N         N         0.89526   0.54519   0.12743   -0.245919           
         H         H         0.89860   0.52205   0.14989   0.234581  
         O         O         0.03786   0.52042   0.16825   -0.220118           
         O         O         0.94017   0.47887   0.14076   -0.218540           
         C         C         0.05541   0.56273   0.19575   -0.412694           
         C         C         0.02399   0.55860   0.19145   0.073109  
         H         H         0.04831   0.59006   0.19690   0.139483  
         H         H         0.08605   0.53990   0.06336   0.122821  
         H         H         0.05585   0.56184   0.33119   0.120462  
         H         H         0.02175   0.56204   0.06279   0.069208  
         H         H         0.99372   0.57892   0.33144   0.099127  
         C         C         0.90994   0.44693   0.20896   -0.414837           
         C         C         0.94461   0.44775   0.18930   0.074309  
         H         H         0.91168   0.42397   0.24930   0.137593  
         H         H         0.91129   0.44195   0.06649   0.127251  
         H         H         0.88038   0.47390   0.32621   0.129271  
         H         H         0.97442   0.42101   0.07043   0.075899  
         H         H         0.94387   0.45230   0.33068   0.055655  
         N         N         0.86314   0.57017   0.11951   -0.100751           
         C         C         0.83684   0.56338   0.14808   -0.022685           
         H         H         0.84013   0.53936   0.18145   0.068444  
         N         N         0.11509   0.43298   0.19330   -0.080132           
         C         C         0.13508   0.44637   0.19625   -0.034098           
         H         H         0.12556   0.47382   0.19076   0.070071  
         C         C         0.52655   0.98618   0.15494   0.205456  
         C         C         0.49882   0.97741   0.19060   -0.118615           
         C         C         0.46302   0.00274   0.20026   -0.222363           
         C         C         0.45355   0.03617   0.18179   0.199439  
         C         C         0.48104   0.04516   0.14862   -0.103515           
         C         C         0.51702   0.01967   0.13686   -0.225655           
         H         H         0.44304   0.99448   0.22390   0.130283  
         H         H         0.53677   0.02817   0.11521   0.138105  
         C         C         0.47713   0.07935   0.12243   0.448749  
         O         O         0.50383   0.08339   0.09140   -0.441955           
         C         C         0.50185   0.94440   0.22829   0.441691  
         O         O         0.47437   0.94104   0.26720   -0.448034           
         N         N         0.44155   0.10512   0.13636   -0.240459           
         H         H         0.42175   0.09855   0.15595   0.230397  
         N         N         0.53659   0.91923   0.22242   -0.237407           
         H         H         0.55619   0.92602   0.20534   0.235899  
         O         O         0.41719   0.06176   0.20046   -0.224384           
         O         O         0.56287   0.96051   0.13507   -0.223777           
         C         C         0.35480   0.08305   0.22371   -0.417876           
         C         C         0.39157   0.05040   0.20821   0.075415  
         H         H         0.33472   0.07547   0.22601   0.138284  
         H         H         0.36426   0.08944   0.09380   0.129885  
         H         H         0.33723   0.10877   0.36210   0.133136  
         H         H         0.40925   0.02418   0.07210   0.068385  
         H         H         0.38246   0.04421   0.33938   0.067073  
         C         C         0.62395   0.93931   0.12439   -0.418138           
         C         C         0.58813   0.97214   0.13457   0.070332  
         H         H         0.64299   0.94716   0.13726   0.141632  
         H         H         0.64312   0.91394   0.98157   0.124917  
         H         H         0.61323   0.93181   0.24791   0.128415  
         H         H         0.59839   0.97779   0.00223   0.070763  
         H         H         0.56995   0.99849   0.27113   0.094261  
         N         N         0.54317   0.88790   0.24928   -0.081519           
         C         C         0.57438   0.86828   0.26280   -0.016993           
         H         H         0.59357   0.87724   0.25789   0.068261  
         N         N         0.43312   0.13783   0.12280   -0.080910           
         C         C         0.39933   0.15878   0.13181   -0.018582           
         H         H         0.37985   0.14976   0.14670   0.066757  
         C         C         0.55418   0.65280   0.22521   -0.139903           
         C         C         0.57008   0.67141   0.26051   -0.131281           
         H         H         0.52902   0.66669   0.20404   0.101890  
         H         H         0.55807   0.69952   0.26434   0.116152  
         C         C         0.77373   0.57887   0.17213   -0.140689           
         C         C         0.73992   0.60098   0.16311   -0.134948           
         H         H         0.77908   0.55455   0.20434   0.098824  
         H         H         0.71875   0.59408   0.18853   0.103607  
         C         C         0.62293   0.81020   0.26712   -0.129255           
         C         C         0.63829   0.77358   0.24998   -0.132055           
         H         H         0.63978   0.82138   0.26769   0.099618  
         H         H         0.66691   0.75580   0.23941   0.107214  
         C         C         0.56399   0.81841   0.28183   -0.090233           
         C         C         0.57911   0.78204   0.26740   -0.114231           
         H         H         0.53540   0.83631   0.29227   0.125609  
         H         H         0.56257   0.77060   0.26493   0.110032  
         C         C         0.79334   0.61957   0.10368   -0.103532           
         C         C         0.75922   0.64190   0.09702   -0.119938           
         H         H         0.81455   0.62636   0.07988   0.123587  
         H         H         0.75294   0.66704   0.07241   0.109140  
         C         C         0.60343   0.59813   0.23981   -0.122050           
         C         C         0.61973   0.61639   0.27169   -0.114382           
         H         H         0.61587   0.56979   0.23281   0.122612  
         H         H         0.64551   0.60237   0.28834   0.106813  
         C         C         0.63703   0.71899   0.20807   -0.019432           
         C         C         0.58650   0.83253   0.27499   0.078838  
         C         C         0.61743   0.75840   0.24131   0.079374  
         C         C         0.62105   0.67182   0.31136   0.011403  
         C         C         0.56983   0.61630   0.21972   0.063311  
         C         C         0.60286   0.65353   0.28583   0.084450  
         C         C         0.69382   0.65847   0.13829   -0.027423           
         C         C         0.80133   0.58754   0.14150   0.053424  
         C         C         0.73190   0.63296   0.12411   0.085085  
         C         C         0.68104   0.68846   0.06433   -0.003272           
         C         C         0.62075   0.70192   0.29080   -0.045674           
         C         C         0.65945   0.66120   0.24747   -0.040940           
         C         C         0.42132   0.35864   0.18565   -0.129464           
         C         C         0.40382   0.34326   0.13442   -0.145837           
         H         H         0.44633   0.34162   0.20378   0.107895  
         H         H         0.41487   0.31433   0.11234   0.106543  
         C         C         0.19142   0.44206   0.20475   -0.147956           
         C         C         0.22663   0.42299   0.20716   -0.131590           
         H         H         0.17962   0.46950   0.19957   0.096920  
         H         H         0.24287   0.43502   0.20388   0.111200  
         C         C         0.34960   0.21524   0.12269   -0.138153           
         C         C         0.33663   0.24875   0.10085   -0.130899           
         H         H         0.33234   0.20402   0.13651   0.100211  
         H         H         0.30947   0.26397   0.09582   0.109946  
         C         C         0.40767   0.20963   0.10522   -0.103094           
         C         C         0.39494   0.24289   0.08122   -0.135150           
         H         H         0.43478   0.19423   0.11044   0.125014  
         H         H         0.41184   0.25447   0.06808   0.105677  
         C         C         0.18647   0.39032   0.20981   -0.102781           
         C         C         0.22157   0.37133   0.21152   -0.110238           
         H         H         0.17004   0.37849   0.21466   0.128575  
         H         H         0.23379   0.34381   0.21577   0.113884  
         C         C         0.37345   0.41832   0.19893   -0.113218           
         C         C         0.35537   0.40332   0.15294   -0.130816           
         H         H         0.36240   0.44728   0.22206   0.119467  
         H         H         0.32974   0.42034   0.13911   0.108597  
         C         C         0.34618   0.29796   0.05495   -0.031159           
         C         C         0.38568   0.19472   0.12087   0.065593  
         C         C         0.35982   0.26249   0.07340   0.087013  
         C         C         0.35170   0.34927   0.07051   -0.028878           
         C         C         0.40730   0.39600   0.21228   0.058239  
         C         C         0.37101   0.36515   0.11349   0.089466  
         C         C         0.28043   0.36543   0.19543   0.000001  
         C         C         0.17107   0.42594   0.20379   0.072337  
         C         C         0.24238   0.38712   0.20764   0.084002  
         C         C         0.30674   0.32749   0.14099   -0.013859           
         C         C         0.37092   0.30928   0.93939   -0.001869           
         C         C         0.31118   0.36893   0.15259   -0.025067 

