
##########################################################################
#               Crystallographic Information Format file
#               Produced by PyCifRW module
#
#  This is a CIF file.  CIF has been adopted by the International
#  Union of Crystallography as the standard for data archiving and
#  transmission.
#
#  For information on this file format, follow the CIF links at
#  http://www.iucr.org
##########################################################################

data_image0

_cell_length_a                          16.4242
_cell_length_b                          16.1053
_cell_length_c                          15.9121
_cell_angle_alpha                       90.0697
_cell_angle_beta                        90.3398
_cell_angle_gamma                       89.4971
_symmetry_space_group_name_H-M          'P 1'
_space_group_name_Hall                  'P 1'
loop_
  _atom_site_type_symbol
  _atom_site_label
  _atom_site_fract_x
  _atom_site_fract_y
  _atom_site_fract_z
  _atom_site_charge
         C         C         0.31200   0.59803   0.35087   -0.206350           
         C         C         0.38568   0.58274   0.38034   -0.054893           
         H         H         0.25905   0.56477   0.37546   0.128151  
         C         C         0.87169   0.31014   0.11492   -0.208317           
         C         C         0.90166   0.38493   0.10412   -0.061504           
         H         H         0.89546   0.25599   0.08052   0.125435  
         C         C         0.83692   0.60607   0.82381   -0.198594           
         C         C         0.88258   0.60260   0.89233   -0.082185           
         H         H         0.83899   0.55295   0.78005   0.119912  
         C         C         0.70197   0.39367   0.36107   -0.205287           
         C         C         0.62925   0.40628   0.39318   -0.049885           
         H         H         0.75529   0.42724   0.38515   0.128971  
         C         C         0.12915   0.69417   0.11816   -0.207903           
         C         C         0.09705   0.62049   0.10600   -0.053183           
         H         H         0.10424   0.75017   0.08755   0.127878  
         C         C         0.15793   0.40140   0.82152   -0.200040           
         C         C         0.11239   0.40759   0.88932   -0.072857           
         H         H         0.15607   0.45333   0.77643   0.121665  
         C         C         0.58853   0.68002   0.66077   -0.199444           
         C         C         0.58720   0.61658   0.60844   -0.077738           
         H         H         0.53320   0.71906   0.66541   0.121124  
         C         C         0.30677   0.13586   0.88853   -0.206921           
         C         C         0.37964   0.10286   0.90034   -0.054069           
         H         H         0.25313   0.11231   0.92165   0.127196  
         C         C         0.60490   0.17018   0.17231   -0.196573           
         C         C         0.59742   0.11832   0.10853   -0.081846           
         H         H         0.55200   0.17629   0.21437   0.120182  
         C         C         0.40549   0.31971   0.66159   -0.201397           
         C         C         0.41021   0.37937   0.60517   -0.075503           
         H         H         0.46046   0.28095   0.67145   0.121067  
         C         C         0.68874   0.87291   0.88191   -0.205889           
         C         C         0.61595   0.90564   0.89397   -0.055534           
         H         H         0.74319   0.89741   0.91362   0.127601  
         C         C         0.40230   0.82616   0.16605   -0.196020           
         C         C         0.40577   0.88191   0.10552   -0.083734           
         H         H         0.45793   0.81702   0.20420   0.119771  
         C         C         0.61206   0.51219   0.50211   -0.259590           
         C         C         0.98689   0.61557   0.00130   -0.258804           
         C         C         0.39505   0.47890   0.49204   -0.259374           
         C         C         0.00959   0.39238   -0.00192  -0.257566           
         C         C         0.52147   0.38502   0.49875   -0.253296           
         C         C         0.60886   0.01508   0.00037   -0.260200           
         C         C         0.48680   0.60607   0.49180   -0.252179           
         C         C         0.39035   0.98996   0.00249   -0.260246           
         C         C         0.50157   0.00004   0.11534   -0.248409           
         C         C         0.49760   0.00436   0.88906   -0.260519           
         C         C         0.99698   0.50500   0.88616   -0.246241           
         C         C         -0.00057  0.50231   0.11199   -0.265199           
         C         C         0.56839   0.44649   0.44230   0.164289  
         C         C         0.93683   0.55451   0.94255   0.162629  
         C         C         0.94884   0.44296   0.05645   0.171038  
         C         C         0.44317   0.54239   0.43436   0.167644  
         C         C         0.05877   0.45466   0.94056   0.162079  
         C         C         0.04866   0.56341   0.05782   0.169916  
         C         C         0.45738   0.43114   0.55273   0.165453  
         C         C         0.54789   0.06374   0.06092   0.164843  
         C         C         0.43852   0.05442   0.94569   0.167182  
         C         C         0.54477   0.56197   0.55441   0.163341  
         C         C         0.45341   0.93856   0.05922   0.163729  
         C         C         0.55876   0.95278   0.94219   0.167980  
         H         H         0.49175   0.33820   0.45917   0.107067  
         H         H         0.56467   0.35232   0.54032   0.111065  
         H         H         0.96233   0.46256   0.84568   0.110725  
         H         H         0.95851   0.53707   0.15386   0.107344  
         H         H         0.35676   0.94691   0.96204   0.106193  
         H         H         0.65354   0.98036   0.03817   0.111094  
         H         H         0.52132   0.64953   0.45292   0.107186  
         H         H         0.44146   0.64253   0.52682   0.110701  
         H         H         0.03015   0.54808   0.84562   0.110377  
         H         H         0.04140   0.46617   0.15193   0.107581  
         H         H         0.64043   0.06035   0.96122   0.105597  
         H         H         0.34744   0.02306   0.04333   0.110970  
         H         H         0.35073   0.51290   0.53032   0.103898  
         H         H         0.36276   0.43422   0.45224   0.112067  
         H         H         0.45985   0.03353   0.15746   0.110601  
         H         H         0.53091   0.04720   0.84834   0.107898  
         H         H         0.94429   0.65019   0.04129   0.105674  
         H         H         0.97537   0.34937   0.95808   0.108974  
         H         H         0.65313   0.47960   0.54568   0.104202  
         H         H         0.64727   0.55606   0.46460   0.112642  
         H         H         0.54481   0.96493   0.15483   0.110481  
         H         H         0.46287   0.96238   0.84816   0.108678  
         H         H         0.05274   0.35675   0.03690   0.105468  
         H         H         0.02056   0.65962   0.96248   0.110086  
         H         H         0.54055   0.53496   0.34228   0.110662  
         H         H         0.84787   0.52986   0.03992   0.110277  
         H         H         0.85288   0.45251   0.96120   0.110932  
         H         H         0.47682   0.44702   0.34336   0.110062  
         H         H         0.15084   0.47879   0.03636   0.110539  
         H         H         0.14104   0.55808   0.95995   0.110325  
         H         H         0.54036   0.46866   0.65283   0.109065  
         H         H         0.52086   0.15778   0.96689   0.109423  
         H         H         0.44507   0.14814   0.04471   0.111195  
         H         H         0.45152   0.53077   0.64476   0.109209  
         H         H         0.47818   0.84775   0.96133   0.110037  
         H         H         0.55632   0.85586   0.03781   0.111232  
         C         C         0.76778   0.74462   0.84529   -0.205838           
         C         C         0.35142   0.71588   0.25745   -0.202043           
         C         C         0.34850   0.22782   0.77025   -0.204938           
         C         C         0.22633   0.26280   0.84730   -0.203578           
         C         C         0.65975   0.27798   0.26549   -0.203919           
         C         C         0.64488   0.77700   0.76674   -0.201995           
         C         C         0.74367   0.23415   0.14873   -0.202843           
         C         C         0.72002   0.65091   0.73669   -0.200600           
         C         C         0.22005   0.65281   0.23812   -0.206916           
         C         C         0.26150   0.76517   0.14688   -0.204504           
         C         C         0.27350   0.35274   0.73560   -0.202221           
         C         C         0.78832   0.34486   0.24142   -0.206833           
         C         C         0.77606   0.66951   0.80043   0.130806  
         C         C         0.20386   0.70588   0.16969   0.135168  
         C         C         0.71761   0.33737   0.28928   0.133046  
         C         C         0.21814   0.33655   0.80016   0.131294  
         C         C         0.80100   0.29457   0.17014   0.134953  
         C         C         0.29391   0.65686   0.28202   0.133685  
         C         C         0.67142   0.22650   0.19546   0.132911  
         C         C         0.70206   0.79823   0.82923   0.132837  
         C         C         0.33992   0.29909   0.72056   0.134652  
         C         C         0.33643   0.77002   0.19024   0.133049  
         C         C         0.29217   0.20881   0.83351   0.132966  
         C         C         0.65334   0.70386   0.71993   0.131263  
         H         H         0.81121   0.75781   0.89550   0.106815  
         H         H         0.40888   0.71915   0.29178   0.102849  
         H         H         0.40059   0.18635   0.76176   0.102790  
         H         H         0.18269   0.25071   0.89709   0.107671  
         H         H         0.60426   0.27297   0.30230   0.101905  
         H         H         0.59294   0.81833   0.75610   0.101321  
         H         H         0.75270   0.19478   0.09379   0.108761  
         H         H         0.72527   0.59275   0.70188   0.102395  
         H         H         0.17444   0.60747   0.25555   0.105807  
         H         H         0.25026   0.80610   0.09353   0.109517  
         H         H         0.26767   0.40966   0.69900   0.104977  
         H         H         0.83428   0.39062   0.25753   0.106364  
         C         C         0.88990   0.49432   -0.00010  -0.250341           
         C         C         0.10657   0.51434   -0.00146  -0.249045           
         C         C         0.48727   0.11276   0.00481   -0.250513           
         C         C         0.51243   0.89198   0.00009   -0.249422           
         C         C         0.50737   0.49273   0.38367   -0.254362           
         C         C         0.49827   0.49822   0.60793   -0.249205 

