
##########################################################################
#               Crystallographic Information Format file
#               Produced by PyCifRW module
#
#  This is a CIF file.  CIF has been adopted by the International
#  Union of Crystallography as the standard for data archiving and
#  transmission.
#
#  For information on this file format, follow the CIF links at
#  http://www.iucr.org
##########################################################################

data_image0

_cell_length_a                          16.0365
_cell_length_b                          16.0306
_cell_length_c                          16.0238
_cell_angle_alpha                       90.1412
_cell_angle_beta                        89.9169
_cell_angle_gamma                       89.9569
_symmetry_space_group_name_H-M          'P 1'
_space_group_name_Hall                  'P 1'
loop_
  _atom_site_type_symbol
  _atom_site_label
  _atom_site_fract_x
  _atom_site_fract_y
  _atom_site_fract_z
  _atom_site_charge
         C         C         0.34387   0.61779   0.34767   0.123335  
         C         C         0.64576   0.39138   0.33945   0.126537  
         C         C         0.61974   0.65720   0.64996   0.124346  
         C         C         0.39296   0.35485   0.66327   0.125355  
         H         H         0.30746   0.56131   0.35819   0.102017  
         H         H         0.68339   0.44698   0.35020   0.098012  
         H         H         0.56799   0.69875   0.63537   0.097031  
         H         H         0.45057   0.31991   0.65343   0.103690  
         C         C         0.83542   0.33601   0.10668   0.130067  
         C         C         0.16343   0.65866   0.10509   0.124034  
         C         C         0.33847   0.16135   0.89347   0.128818  
         C         C         0.66582   0.83878   0.88977   0.123630  
         H         H         0.84639   0.30108   0.04924   0.099934  
         H         H         0.15189   0.69356   0.04790   0.106074  
         H         H         0.29895   0.14473   0.94632   0.102157  
         H         H         0.69732   0.84687   0.94951   0.104362  
         C         C         0.84792   0.59676   0.84523   0.126976  
         C         C         0.14909   0.39649   0.84342   0.121384  
         C         C         0.59930   0.14781   0.15807   0.123892  
         C         C         0.39917   0.84795   0.15399   0.121842  
         N         N         0.89714   0.61501   0.91003   -0.289192           
         N         N         0.09757   0.37595   0.90592   -0.292260           
         N         N         0.61933   0.09797   0.09390   -0.292151           
         N         N         0.38342   0.89333   0.08596   -0.286192           
         H         H         0.85694   0.53816   0.81167   0.101730  
         H         H         0.13991   0.45537   0.81068   0.103310  
         H         H         0.54214   0.13629   0.19318   0.103606  
         H         H         0.45536   0.86035   0.19020   0.104447  
         H         H         0.87740   0.67088   0.93848   0.272159  
         H         H         0.11700   0.31961   0.93323   0.271258  
         H         H         0.67339   0.12132   0.06428   0.266415  
         H         H         0.32881   0.87168   0.05657   0.272027  
         N         N         0.63025   0.58781   0.60480   -0.282246           
         N         N         0.37556   0.41949   0.61384   -0.284805           
         N         N         0.57812   0.37884   0.38647   -0.279849           
         N         N         0.40846   0.63429   0.39785   -0.290120           
         H         H         0.67908   0.55164   0.62899   0.273794  
         H         H         0.32082   0.44973   0.63337   0.273053  
         H         H         0.54622   0.32490   0.36794   0.272916  
         H         H         0.44043   0.68752   0.37774   0.274092  
         N         N         0.60192   0.88849   0.87047   -0.282320           
         N         N         0.40742   0.11761   0.87757   -0.277278           
         N         N         0.88472   0.40028   0.12585   -0.281407           
         N         N         0.11709   0.59184   0.12273   -0.279545           
         H         H         0.57711   0.87232   0.81191   0.273191  
         H         H         0.43962   0.14397   0.82642   0.266582  
         H         H         0.86423   0.42914   0.18140   0.268262  
         H         H         0.13765   0.56395   0.17852   0.271771  
         C         C         0.60696   0.48602   0.49477   -0.324649           
         C         C         0.38874   0.52510   0.50641   -0.320960           
         C         C         0.47837   0.39618   0.49968   -0.322773           
         C         C         0.51708   0.61447   0.50174   -0.320397           
         C         C         0.00877   0.60647   0.01156   -0.320047           
         C         C         0.99020   0.38503   0.01203   -0.321570           
         C         C         0.61298   0.99107   0.98691   -0.319854           
         C         C         0.39147   0.00582   0.98584   -0.320470           
         C         C         0.50159   0.99460   0.09795   -0.324169           
         C         C         0.99749   0.49560   0.90062   -0.325098           
         C         C         0.50314   0.00207   0.87574   -0.318683           
         C         C         0.00124   0.49594   0.12269   -0.319225           
         C         C         0.54048   0.44126   0.44189   0.290310  
         C         C         0.45027   0.57068   0.44846   0.289932  
         C         C         0.43588   0.45963   0.55836   0.290188  
         C         C         0.56508   0.54954   0.55356   0.289583  
         C         C         0.94768   0.55550   0.95730   0.291628  
         C         C         0.04907   0.43578   0.95546   0.291544  
         C         C         0.56079   0.04819   0.04444   0.291116  
         C         C         0.44301   0.94490   0.03984   0.293190  
         C         C         0.94075   0.44433   0.06904   0.288389  
         C         C         0.06001   0.54745   0.06700   0.289109  
         C         C         0.45037   0.05904   0.93228   0.288286  
         C         C         0.55529   0.94158   0.92846   0.288762  
         H         H         0.51201   0.34862   0.53562   0.121615  
         H         H         0.48604   0.66020   0.54241   0.120047  
         H         H         0.33959   0.49374   0.47041   0.122604  
         H         H         0.65173   0.51916   0.45493   0.121177  
         H         H         0.43078   0.36408   0.46218   0.128372  
         H         H         0.56058   0.64858   0.46119   0.128969  
         H         H         0.35830   0.57039   0.54818   0.126659  
         H         H         0.64202   0.43984   0.53126   0.129635  
         H         H         0.03825   0.53240   0.85965   0.122407  
         H         H         0.95574   0.45865   0.86077   0.122843  
         H         H         0.53878   0.95241   0.13699   0.121776  
         H         H         0.46376   0.03384   0.13969   0.122517  
         H         H         0.03820   0.45426   0.16257   0.128174  
         H         H         0.96577   0.53789   0.16392   0.127068  
         H         H         0.46183   0.96685   0.83380   0.127046  
         H         H         0.54455   0.04019   0.83660   0.127373  
         H         H         0.35332   0.04513   0.02723   0.120672  
         H         H         0.65035   0.94876   0.02563   0.118262  
         H         H         0.04961   0.64281   0.97025   0.120190  
         H         H         0.94817   0.34798   0.97256   0.120793  
         H         H         0.65641   0.02891   0.94977   0.128731  
         H         H         0.34884   0.97027   0.94551   0.127272  
         H         H         0.02688   0.34134   0.04999   0.129523  
         H         H         0.97368   0.65073   0.05065   0.127289  
         H         H         0.53567   0.53902   0.34785   0.121842  
         H         H         0.44544   0.47559   0.35154   0.123274  
         H         H         0.53681   0.45758   0.64891   0.124382  
         H         H         0.47394   0.54825   0.65406   0.125012  
         H         H         0.85340   0.54691   0.05451   0.127209  
         H         H         0.14678   0.44447   0.04904   0.127734  
         H         H         0.55071   0.14776   0.95340   0.127581  
         H         H         0.45437   0.85169   0.94142   0.127155  
         H         H         0.84497   0.46912   0.97638   0.122147  
         H         H         0.15264   0.52198   0.97063   0.121931  
         H         H         0.47194   0.14949   0.03102   0.121871  
         H         H         0.53180   0.84404   0.01981   0.121573  
         C         C         0.76434   0.72515   0.86485   0.359615  
         C         C         0.23715   0.27168   0.86525   0.355609  
         C         C         0.72171   0.23777   0.13251   0.356161  
         C         C         0.27449   0.75978   0.13170   0.355101  
         C         C         0.37020   0.73998   0.25732   0.357636  
         C         C         0.62235   0.26457   0.25429   0.357852  
         C         C         0.73668   0.62413   0.74477   0.358794  
         C         C         0.26592   0.37574   0.74827   0.356285  
         C         C         0.36726   0.25641   0.77561   0.354361  
         C         C         0.64937   0.75674   0.76022   0.356622  
         C         C         0.24890   0.63966   0.23207   0.355914  
         C         C         0.74729   0.36004   0.23098   0.357519  
         C         C         0.78479   0.64987   0.81791   -0.264509           
         C         C         0.21542   0.34637   0.81829   -0.258696           
         C         C         0.64921   0.21482   0.18231   -0.261213           
         C         C         0.34661   0.78425   0.18122   -0.263279           
         C         C         0.22735   0.68621   0.15746   -0.264522           
         C         C         0.76932   0.31122   0.15759   -0.266298           
         C         C         0.69374   0.77538   0.83695   -0.264107           
         C         C         0.31442   0.22862   0.84373   -0.264936           
         C         C         0.67159   0.33748   0.27624   -0.262539           
         C         C         0.32041   0.66788   0.28107   -0.259622           
         C         C         0.34085   0.32902   0.72764   -0.262483           
         C         C         0.67095   0.67975   0.71618   -0.262678           
         O         O         0.80503   0.74598   0.92968   -0.486318           
         O         O         0.19164   0.24593   0.92499   -0.483658           
         O         O         0.74281   0.19590   0.06815   -0.479510           
         O         O         0.25398   0.80000   0.06645   -0.484717           
         O         O         0.43303   0.76245   0.30009   -0.486698           
         O         O         0.55749   0.24551   0.29562   -0.485701           
         O         O         0.75096   0.55512   0.70815   -0.486342           
         O         O         0.24557   0.44096   0.70800   -0.485512           
         O         O         0.43540   0.21932   0.75789   -0.482395           
         O         O         0.59139   0.80387   0.73359   -0.483866           
         O         O         0.20813   0.57511   0.25397   -0.485976           
         O         O         0.79130   0.42190   0.25426   -0.482681           
         C         C         0.88964   0.50451   0.01451   -0.330122           
         C         C         0.10930   0.48695   0.01055   -0.332807           
         C         C         0.50884   0.10816   0.99041   -0.329386           
         C         C         0.49573   0.88832   0.98198   -0.331295           
         C         C         0.49271   0.50661   0.39030   -0.328769           
         C         C         0.50322   0.50360   0.61086   -0.332445 

