
##########################################################################
#               Crystallographic Information Format file
#               Produced by PyCifRW module
#
#  This is a CIF file.  CIF has been adopted by the International
#  Union of Crystallography as the standard for data archiving and
#  transmission.
#
#  For information on this file format, follow the CIF links at
#  http://www.iucr.org
##########################################################################

data_image0

_cell_length_a                          24.2473
_cell_length_b                          26.883
_cell_length_c                          8.20563
_cell_angle_alpha                       89.7776
_cell_angle_beta                        86.3176
_cell_angle_gamma                       57.1764
_symmetry_space_group_name_H-M          'P 1'
_space_group_name_Hall                  'P 1'
loop_
  _atom_site_type_symbol
  _atom_site_label
  _atom_site_fract_x
  _atom_site_fract_y
  _atom_site_fract_z
  _atom_site_charge
         C         C         0.36263   0.46826   0.45815   0.067264  
         N         N         0.36691   0.50220   0.56070   -0.284654           
         C         C         0.42700   0.49725   0.56845   0.201249  
         C         C         0.42492   0.54986   0.59601   -0.144474           
         C         C         0.48263   0.54913   0.59136   -0.175417           
         H         H         0.40432   0.43712   0.37256   0.065296  
         H         H         0.37699   0.59086   0.61656   0.119255  
         H         H         0.48098   0.58993   0.61063   0.108318  
         C         C         0.60415   0.53280   0.46345   0.068439  
         N         N         0.60297   0.49405   0.55499   -0.282416           
         C         C         0.54436   0.49540   0.56691   0.207888  
         C         C         0.54662   0.44202   0.55755   -0.151584           
         C         C         0.48875   0.44303   0.55405   -0.183187           
         H         H         0.56281   0.56195   0.38941   0.064934  
         H         H         0.59445   0.40050   0.54732   0.119902  
         H         H         0.49071   0.40176   0.54258   0.104997  
         C         C         0.35636   0.18175   0.46680   0.059880  
         N         N         0.36467   0.13502   0.39571   -0.292320           
         C         C         0.42325   0.07990   0.40569   0.200464  
         C         C         0.41971   0.02935   0.39552   -0.142302           
         C         C         0.47534   0.97288   0.40595   -0.168139           
         H         H         0.39335   0.17970   0.54284   0.062790  
         H         H         0.37198   0.03597   0.38008   0.119649  
         H         H         0.47158   0.93449   0.39572   0.107364  
         C         C         0.59396   0.86585   0.49559   0.066298  
         N         N         0.59566   0.90886   0.42945   -0.288961           
         C         C         0.53746   0.96445   0.42265   0.206718  
         C         C         0.54169   0.01478   0.42221   -0.144369           
         C         C         0.48572   0.07143   0.41651   -0.178641           
         H         H         0.54842   0.87261   0.55609   0.060656  
         H         H         0.59008   0.00786   0.42776   0.118192  
         H         H         0.49009   0.10964   0.41565   0.104002  
         S         S         0.05107   0.42556   0.38757   0.086314  
         C         C         0.00525   0.50348   0.38981   -0.106524           
         C         C         0.93874   0.53695   0.38365   -0.125373           
         S         S         0.89124   0.50649   0.36624   0.103533  
         S         S         0.89232   0.61460   0.38177   0.072514  
         S         S         0.05314   0.53434   0.39239   0.101036  
         C         C         0.12738   0.41664   0.41673   -0.061802           
         C         C         0.12790   0.46740   0.41661   -0.055352           
         C         C         0.81499   0.57230   0.41680   -0.046924           
         C         C         0.81460   0.62359   0.42727   -0.060363           
         C         C         0.18385   0.35627   0.43554   0.075011  
         C         C         0.18768   0.30683   0.36243   -0.139350           
         C         C         0.24310   0.25002   0.37195   -0.096685           
         C         C         0.29705   0.24028   0.45488   0.048282  
         C         C         0.29231   0.28933   0.53199   -0.129264           
         C         C         0.23669   0.34586   0.52502   -0.128851           
         H         H         0.14740   0.31361   0.29330   0.109098  
         H         H         0.24643   0.21225   0.31285   0.116835  
         H         H         0.33292   0.28219   0.60042   0.100643  
         H         H         0.23360   0.38244   0.58977   0.104653  
         C         C         0.76046   0.56278   0.42792   0.070739  
         C         C         0.76514   0.51754   0.52595   -0.125748           
         C         C         0.71523   0.50668   0.53746   -0.102245           
         C         C         0.65905   0.54069   0.45000   0.054575  
         C         C         0.65520   0.58459   0.34837   -0.126624           
         C         C         0.70539   0.59517   0.33561   -0.122050           
         H         H         0.80761   0.49231   0.59757   0.106864  
         H         H         0.71801   0.47288   0.61630   0.119226  
         H         H         0.61282   0.60970   0.27644   0.105317  
         H         H         0.70248   0.62808   0.25301   0.113877  
         C         C         0.75918   0.68495   0.45829   0.076818  
         C         C         0.76641   0.73221   0.41342   -0.132781           
         C         C         0.71408   0.79086   0.42911   -0.096933           
         C         C         0.65140   0.80550   0.49151   0.052998  
         C         C         0.64463   0.75903   0.54464   -0.132207           
         C         C         0.69704   0.70028   0.52888   -0.130607           
         H         H         0.81351   0.72251   0.35913   0.111284  
         H         H         0.72007   0.82645   0.38975   0.119205  
         H         H         0.59686   0.76946   0.59651   0.105130  
         H         H         0.68955   0.66568   0.56838   0.107051  
         C         C         0.18610   0.47097   0.42249   0.076971  
         C         C         0.18690   0.51114   0.53062   -0.143149           
         C         C         0.24410   0.51053   0.54343   -0.098548           
         C         C         0.30175   0.47051   0.44580   0.056530  
         C         C         0.29998   0.43242   0.33231   -0.123967           
         C         C         0.24283   0.43294   0.32045   -0.117439           
         H         H         0.14291   0.54094   0.60879   0.100253  
         H         H         0.24572   0.54035   0.62929   0.114127  
         H         H         0.34345   0.40295   0.25175   0.104152  
         H         H         0.24123   0.40366   0.23313   0.098086  
         C         C         0.40562   0.45132   0.93612   0.063899  
         N         N         0.40081   0.49635   0.00893   -0.290757           
         C         C         0.45724   0.49768   0.02205   0.206756  
         C         C         0.44983   0.55351   0.02503   -0.139645           
         C         C         0.50411   0.55821   0.02801   -0.181628           
         H         H         0.45281   0.41469   0.87925   0.058026  
         H         H         0.40041   0.59273   0.02122   0.117591  
         H         H         0.49726   0.60172   0.02841   0.106280  
         C         C         0.63108   0.54615   0.95423   0.059283  
         N         N         0.62599   0.50668   0.03242   -0.293586           
         C         C         0.56809   0.50705   0.03413   0.202403  
         C         C         0.57458   0.45177   0.04687   -0.140496           
         C         C         0.52065   0.44694   0.03864   -0.172349           
         H         H         0.59100   0.58046   0.88495   0.063908  
         H         H         0.62342   0.41291   0.06073   0.118969  
         H         H         0.52681   0.40386   0.04880   0.108585  
         C         C         0.39078   0.12975   0.97583   0.067424  
         N         N         0.39642   0.08532   0.89764   -0.280855           
         C         C         0.45683   0.03103   0.89885   0.200863  
         C         C         0.45881   0.97787   0.91328   -0.152372           
         C         C         0.51880   0.92386   0.91587   -0.183482           
         H         H         0.42898   0.12309   0.05512   0.063868  
         H         H         0.41262   0.98002   0.92432   0.118996  
         H         H         0.52023   0.88286   0.92842   0.104841  
         C         C         0.65221   0.82611   0.98235   0.072513  
         N         N         0.64016   0.86786   0.88391   -0.282155           
         C         C         0.57873   0.92101   0.89491   0.201746  
         C         C         0.57662   0.97383   0.87060   -0.150076           
         C         C         0.51688   0.02787   0.87620   -0.169589           
         H         H         0.61724   0.83283   0.08575   0.067339  
         H         H         0.62289   0.97104   0.84767   0.119953  
         H         H         0.51550   0.06850   0.85572   0.107587  
         S         S         0.10601   0.38519   0.87810   0.104859  
         C         C         0.06270   0.46228   0.86411   -0.108787           
         C         C         0.99720   0.49741   0.84296   -0.117866           
         S         S         0.94392   0.47222   0.83521   0.074154  
         S         S         0.95751   0.57445   0.82613   0.087637  
         S         S         0.11177   0.49151   0.87756   0.088164  
         C         C         0.18310   0.37412   0.91039   -0.049805           
         C         C         0.18633   0.42375   0.90712   -0.060291           
         C         C         0.87128   0.54249   0.88438   -0.062237           
         C         C         0.87834   0.58977   0.88038   -0.048930           
         C         C         0.23518   0.31175   0.93234   0.071432  
         C         C         0.23448   0.26589   0.85001   -0.129692           
         C         C         0.28359   0.20669   0.86550   -0.104811           
         C         C         0.33574   0.19076   0.96423   0.054863  
         C         C         0.33607   0.23609   0.04864   -0.126582           
         C         C         0.28647   0.29524   0.03465   -0.123705           
         H         H         0.19613   0.27721   0.76775   0.107869  
         H         H         0.28368   0.17186   0.79804   0.121326  
         H         H         0.37552   0.22448   0.12746   0.105946  
         H         H         0.28729   0.32894   0.10473   0.108095  
         C         C         0.80959   0.54464   0.90919   0.080885  
         C         C         0.80750   0.49901   0.98942   -0.143305           
         C         C         0.74965   0.49979   0.00770   -0.094380           
         C         C         0.69139   0.54601   0.94537   0.050397  
         C         C         0.69342   0.59163   0.86595   -0.129950           
         C         C         0.75108   0.59097   0.84759   -0.122120           
         H         H         0.85193   0.46329   0.03947   0.103785  
         H         H         0.74813   0.46471   0.06980   0.117061  
         H         H         0.64932   0.62707   0.81367   0.104738  
         H         H         0.75181   0.62568   0.78155   0.104371  
         C         C         0.82508   0.65185   0.91397   0.079817  
         C         C         0.81682   0.69732   0.81142   -0.135645           
         C         C         0.76144   0.75438   0.83555   -0.097788           
         C         C         0.71293   0.76768   0.96240   0.050723  
         C         C         0.72295   0.72294   0.06935   -0.125453           
         C         C         0.77874   0.66614   0.04660   -0.130497           
         H         H         0.85288   0.68702   0.70956   0.100196  
         H         H         0.75328   0.78933   0.75383   0.111097  
         H         H         0.68672   0.73292   0.17051   0.099882  
         H         H         0.78698   0.63151   0.12923   0.095286  
         C         C         0.24291   0.42988   0.91064   0.074437  
         C         C         0.23324   0.48354   0.97110   -0.130439           
         C         C         0.28505   0.49149   0.97675   -0.091854           
         C         C         0.34947   0.44592   0.92229   0.055303  
         C         C         0.35896   0.39342   0.85485   -0.132262           
         C         C         0.30699   0.38551   0.84859   -0.127392           
         H         H         0.18444   0.51862   0.02034   0.109934  
         H         H         0.27728   0.53242   0.02661   0.120377  
         H         H         0.40802   0.35829   0.80692   0.105250  
         H         H         0.31583   0.34450   0.79683   0.106640 

