
##########################################################################
#               Crystallographic Information Format file
#               Produced by PyCifRW module
#
#  This is a CIF file.  CIF has been adopted by the International
#  Union of Crystallography as the standard for data archiving and
#  transmission.
#
#  For information on this file format, follow the CIF links at
#  http://www.iucr.org
##########################################################################

data_image0

_cell_length_a                          36.4007
_cell_length_b                          33
_cell_length_c                          9.36574
_cell_angle_alpha                       87.1013
_cell_angle_beta                        82.4959
_cell_angle_gamma                       89.819
_symmetry_space_group_name_H-M          'P 1'
_space_group_name_Hall                  'P 1'
loop_
  _atom_site_type_symbol
  _atom_site_label
  _atom_site_fract_x
  _atom_site_fract_y
  _atom_site_fract_z
  _atom_site_charge
         C         C         0.03969   0.46224   0.28041   0.032895  
         C         C         0.54077   0.96207   0.24109   0.027868  
         C         C         0.96052   0.46179   0.28316   0.029566  
         C         C         0.46124   0.96064   0.25204   0.028804  
         C         C         0.96009   0.53723   0.27604   0.030076  
         C         C         0.46043   0.03595   0.25944   0.031894  
         C         C         0.03912   0.53767   0.27852   0.031520  
         C         C         0.53927   0.03728   0.25049   0.030126  
         C         C         0.98106   0.42532   0.29897   -0.134129           
         C         C         0.48275   0.92429   0.24353   -0.134602           
         C         C         0.01877   0.42541   0.29445   -0.134961           
         C         C         0.52064   0.92511   0.23541   -0.132217           
         C         C         0.01793   0.57432   0.28383   -0.132570           
         C         C         0.51817   0.07376   0.25025   -0.131336           
         C         C         0.98026   0.57399   0.28472   -0.133224           
         C         C         0.48051   0.07311   0.25691   -0.137926           
         C         C         0.92201   0.46156   0.26881   0.026566  
         C         C         0.42182   0.96074   0.26042   0.025431  
         C         C         0.07925   0.46274   0.26284   0.024428  
         C         C         0.58001   0.96338   0.23909   0.030911  
         C         C         0.07858   0.53746   0.26649   0.025203  
         C         C         0.57840   0.03797   0.24745   0.026497  
         C         C         0.92140   0.53637   0.26355   0.026751  
         C         C         0.42115   0.03524   0.26779   0.025291  
         C         C         0.90010   0.42456   0.25453   0.061953  
         C         C         0.39886   0.92445   0.24888   0.070879  
         C         C         0.10247   0.42546   0.25628   0.070320  
         C         C         0.60359   0.92669   0.24369   0.058765  
         C         C         0.10090   0.57479   0.26969   0.067343  
         C         C         0.60008   0.07565   0.25366   0.064995  
         C         C         0.89848   0.57308   0.24842   0.059847  
         C         C         0.39867   0.07245   0.26236   0.063254  
         C         C         0.86287   0.42217   0.32000   -0.123334           
         C         C         0.36535   0.91874   0.34206   -0.127571           
         C         C         0.13334   0.42289   0.14800   -0.123788           
         C         C         0.63740   0.92439   0.15197   -0.126383           
         C         C         0.13218   0.58292   0.16584   -0.130178           
         C         C         0.63413   0.08065   0.16322   -0.125726           
         C         C         0.86199   0.57434   0.32123   -0.125318           
         C         C         0.36441   0.07520   0.35112   -0.126538           
         C         C         0.83992   0.38990   0.29993   -0.176920           
         C         C         0.34137   0.88707   0.32793   -0.163167           
         C         C         0.15774   0.39028   0.14658   -0.163435           
         C         C         0.66158   0.89183   0.16385   -0.176493           
         C         C         0.15429   0.61687   0.17212   -0.168381           
         C         C         0.65762   0.11315   0.17354   -0.166979           
         C         C         0.83910   0.60770   0.30391   -0.175107           
         C         C         0.34090   0.10807   0.33632   -0.166959           
         C         C         0.85355   0.35821   0.21213   0.198749  
         C         C         0.34974   0.85984   0.21705   0.191794  
         C         C         0.15254   0.35857   0.25406   0.198261  
         C         C         0.65303   0.86079   0.27190   0.196201  
         C         C         0.14630   0.64387   0.28424   0.191084  
         C         C         0.64800   0.14239   0.27680   0.193608  
         C         C         0.85183   0.64124   0.21125   0.194328  
         C         C         0.35100   0.13965   0.23109   0.192286  
         C         C         0.89058   0.36047   0.14529   -0.156475           
         C         C         0.38336   0.86504   0.12519   -0.143758           
         C         C         0.12085   0.35983   0.35767   -0.158230           
         C         C         0.61967   0.86330   0.36598   -0.166681           
         C         C         0.11443   0.63664   0.38521   -0.147412           
         C         C         0.61347   0.13833   0.36453   -0.153128           
         C         C         0.88789   0.63964   0.13595   -0.157410           
         C         C         0.38565   0.13737   0.14475   -0.150510           
         C         C         0.91347   0.39266   0.16717   -0.132639           
         C         C         0.40747   0.89661   0.14073   -0.135119           
         C         C         0.09642   0.39248   0.35907   -0.128744           
         C         C         0.59505   0.89503   0.34946   -0.127525           
         C         C         0.09245   0.60254   0.37889   -0.132762           
         C         C         0.58994   0.10577   0.35340   -0.130950           
         C         C         0.91078   0.60652   0.15486   -0.127991           
         C         C         0.40905   0.10465   0.16052   -0.132603           
         H         H         0.96622   0.39666   0.31375   0.106732  
         H         H         0.46841   0.89542   0.24351   0.108718  
         H         H         0.03335   0.39676   0.29945   0.107117  
         H         H         0.53595   0.89689   0.22421   0.107335  
         H         H         0.03221   0.60309   0.28662   0.110203  
         H         H         0.53244   0.10270   0.24439   0.107955  
         H         H         0.96514   0.60243   0.29143   0.107006  
         H         H         0.46526   0.10142   0.26020   0.107457  
         H         H         0.85194   0.44601   0.38966   0.109867  
         H         H         0.35891   0.93914   0.42930   0.109544  
         H         H         0.13815   0.44658   0.06206   0.111634  
         H         H         0.64446   0.94840   0.06894   0.108937  
         H         H         0.13847   0.56302   0.07637   0.112121  
         H         H         0.64213   0.05811   0.08419   0.108907  
         H         H         0.85166   0.54891   0.39420   0.110195  
         H         H         0.35653   0.05134   0.43421   0.110939  
         H         H         0.81121   0.38930   0.35097   0.113624  
         H         H         0.31669   0.88292   0.40604   0.112636  
         H         H         0.18074   0.38935   0.06005   0.111426  
         H         H         0.68748   0.89077   0.09115   0.113964  
         H         H         0.17704   0.62324   0.08651   0.112005  
         H         H         0.68387   0.11505   0.10323   0.113314  
         H         H         0.81114   0.60772   0.36185   0.112041  
         H         H         0.31452   0.10895   0.40584   0.113989  
         H         H         0.90093   0.33675   0.07405   0.124606  
         H         H         0.38951   0.84413   0.03939   0.121554  
         H         H         0.11614   0.33507   0.43940   0.121977  
         H         H         0.61371   0.83997   0.45211   0.123922  
         H         H         0.10838   0.65741   0.47200   0.123867  
         H         H         0.60616   0.16045   0.44592   0.121876  
         H         H         0.89725   0.66489   0.06117   0.124920  
         H         H         0.39315   0.16134   0.06215   0.124144  
         H         H         0.94155   0.39426   0.11010   0.113904  
         H         H         0.43253   0.90094   0.06491   0.109792  
         H         H         0.07326   0.39311   0.44544   0.109884  
         H         H         0.56960   0.89647   0.42402   0.110263  
         H         H         0.06916   0.59639   0.46267   0.104749  
         H         H         0.56462   0.10241   0.42963   0.110736  
         H         H         0.93803   0.60555   0.09147   0.112809  
         H         H         0.43496   0.10274   0.08882   0.111195  
         C         C         0.90385   0.49885   0.25927   -0.189785           
         C         C         0.40304   0.99780   0.27195   -0.184874           
         C         C         0.09741   0.50042   0.25357   -0.183670           
         C         C         0.59753   0.00106   0.24044   -0.188996           
         C         C         0.01958   0.49984   0.28138   0.004348  
         C         C         0.52023   -0.00075  0.24884   0.003119  
         C         C         0.98002   0.49965   0.28083   0.003478  
         C         C         0.48059   0.99853   0.25344   0.004416  
         H         H         0.87502   0.49879   0.23970   0.106347  
         H         H         0.37312   0.99773   0.27276   0.107688  
         H         H         0.12756   0.50113   0.24403   0.108872  
         H         H         0.62730   0.00145   0.24341   0.107805  
         N         N         0.32861   0.17236   0.19624   -0.263953           
         N         N         0.82996   0.67466   0.17848   -0.267512           
         N         N         0.67131   0.17371   0.30791   -0.271082           
         N         N         0.16750   0.67794   0.30341   -0.256382           
         N         N         0.67712   0.82875   0.29708   -0.263129           
         N         N         0.17682   0.32595   0.26981   -0.288697           
         N         N         0.32791   0.82701   0.18968   -0.265129           
         N         N         0.83190   0.32553   0.18019   -0.270172           
         C         C         0.30210   0.18517   0.28807   0.080668  
         C         C         0.80491   0.68781   0.27556   0.084376  
         C         C         0.69785   0.18751   0.21310   0.074461  
         C         C         0.20136   0.68118   0.24209   0.069767  
         C         C         0.69332   0.80917   0.19082   0.090277  
         C         C         0.20693   0.32005   0.18139   0.091134  
         C         C         0.29619   0.81980   0.26574   0.069070  
         C         C         0.80688   0.31031   0.27841   0.085517  
         C         C         0.27790   0.21868   0.25258   -0.020062           
         C         C         0.77809   0.71931   0.24670   -0.026715           
         C         C         0.72434   0.21884   0.23958   -0.020949           
         C         C         0.22439   0.71651   0.25355   -0.022464           
         C         C         0.72080   0.77748   0.21392   -0.020031           
         C         C         0.23081   0.28632   0.20852   -0.058134           
         C         C         0.27333   0.78472   0.24930   -0.023579           
         C         C         0.78079   0.27833   0.25707   -0.023079           
         C         C         0.24429   0.22384   0.34244   -0.263598           
         C         C         0.74661   0.72230   0.35044   -0.288688           
         C         C         0.75650   0.22275   0.13828   -0.284659           
         C         C         0.25984   0.71776   0.17196   -0.290769           
         C         C         0.75200   0.77444   0.11046   -0.280664           
         C         C         0.26419   0.28093   0.11838   -0.281084           
         C         C         0.23820   0.78317   0.33271   -0.289034           
         C         C         0.74915   0.27420   0.36028   -0.282668           
         C         C         0.22093   0.25679   0.32360   0.258524  
         C         C         0.71842   0.75030   0.33646   0.243679  
         C         C         0.78426   0.25116   0.14408   0.252257  
         C         C         0.28358   0.75097   0.16437   0.247183  
         C         C         0.78043   0.74663   0.12424   0.254036  
         C         C         0.28725   0.24816   0.13784   0.240464  
         C         C         0.21371   0.75078   0.33611   0.247601  
         C         C         0.72127   0.24578   0.35442   0.247718  
         H         H         0.23627   0.20167   0.43086   0.143514  
         H         H         0.74467   0.70144   0.44493   0.126454  
         H         H         0.75937   0.20283   0.04830   0.122428  
         H         H         0.26884   0.69224   0.10689   0.127213  
         H         H         0.75397   0.79506   0.01577   0.129291  
         H         H         0.27238   0.30269   0.02906   0.124155  
         H         H         0.23045   0.80854   0.40022   0.127265  
         H         H         0.74706   0.29453   0.44919   0.124924  
         O         O         0.18933   0.26006   0.41574   -0.428253           
         O         O         0.68748   0.75160   0.43633   -0.434255           
         O         O         0.81461   0.25350   0.04224   -0.429099           
         O         O         0.31660   0.75213   0.07490   -0.423076           
         O         O         0.81028   0.74506   0.02065   -0.431314           
         O         O         0.31941   0.24437   0.04566   -0.427883           
         O         O         0.18021   0.75048   0.42215   -0.421038           
         O         O         0.69055   0.24456   0.45624   -0.432348           
         H         H         0.29695   0.17278   0.40033   0.072101  
         H         H         0.17645   0.28529   0.37818   0.297593  
         H         H         0.80195   0.67514   0.38764   0.071349  
         H         H         0.69194   0.73503   0.52148   0.359762  
         H         H         0.70180   0.17760   0.10166   0.070100  
         H         H         0.80896   0.23906   0.95936   0.361610  
         H         H         0.21482   0.65759   0.17447   0.067288  
         H         H         0.31707   0.72921   0.01309   0.366301  
         H         H         0.68737   0.81478   0.07941   0.075281  
         H         H         0.80373   0.75798   0.93150   0.358977  
         H         H         0.21456   0.33932   0.08307   0.084804  
         H         H         0.31815   0.26489   0.96826   0.358669  
         H         H         0.28439   0.83868   0.35393   0.069463  
         H         H         0.18043   0.77243   0.48813   0.365452  
         H         H         0.80368   0.32103   0.38875   0.068492  
         H         H         0.69742   0.25823   0.53946   0.359723  
         C         C         0.03958   0.46226   0.71974   0.029859  
         C         C         0.53809   0.96077   0.74941   0.030863  
         C         C         0.96042   0.46187   0.72641   0.029442  
         C         C         0.45850   0.96069   0.75589   0.030903  
         C         C         0.95985   0.53730   0.72509   0.031163  
         C         C         0.45869   0.03609   0.75629   0.029529  
         C         C         0.03908   0.53767   0.72046   0.030610  
         C         C         0.53797   0.03621   0.75001   0.031627  
         C         C         0.98159   0.42528   0.71634   -0.133125           
         C         C         0.47962   0.92404   0.75128   -0.137459           
         C         C         0.01935   0.42567   0.71046   -0.137599           
         C         C         0.51743   0.92419   0.74547   -0.135494           
         C         C         0.01828   0.57435   0.71504   -0.140554           
         C         C         0.51720   0.07290   0.74666   -0.136288           
         C         C         0.98056   0.57420   0.71931   -0.131031           
         C         C         0.47943   0.07280   0.75384   -0.133382           
         C         C         0.92097   0.46202   0.74186   0.027231  
         C         C         0.41906   0.96127   0.75986   0.023856  
         C         C         0.07833   0.46264   0.73004   0.024397  
         C         C         0.57731   0.96133   0.74897   0.023562  
         C         C         0.07792   0.53740   0.72929   0.024275  
         C         C         0.57726   0.03610   0.74766   0.024917  
         C         C         0.92034   0.53668   0.73965   0.025572  
         C         C         0.41943   0.03605   0.76064   0.026871  
         C         C         0.89836   0.42481   0.74214   0.065573  
         C         C         0.39606   0.92479   0.75000   0.058656  
         C         C         0.10081   0.42573   0.74795   0.056278  
         C         C         0.60066   0.92483   0.75690   0.062354  
         C         C         0.10022   0.57407   0.74414   0.060674  
         C         C         0.60037   0.07289   0.75094   0.061171  
         C         C         0.89724   0.57383   0.73913   0.063405  
         C         C         0.39729   0.07371   0.75166   0.060983  
         C         C         0.86648   0.41808   0.84375   -0.128846           
         C         C         0.36037   0.92098   0.82980   -0.124676           
         C         C         0.13801   0.42485   0.68286   -0.126762           
         C         C         0.63637   0.92464   0.67712   -0.123818           
         C         C         0.13663   0.57785   0.67114   -0.126212           
         C         C         0.63586   0.07543   0.66931   -0.127717           
         C         C         0.86565   0.57741   0.84256   -0.128767           
         C         C         0.36421   0.07841   0.84630   -0.127635           
         C         C         0.84274   0.38547   0.83542   -0.168339           
         C         C         0.33718   0.88861   0.81359   -0.178635           
         C         C         0.16092   0.39193   0.70567   -0.186529           
         C         C         0.66041   0.89223   0.69019   -0.175818           
         C         C         0.15934   0.61041   0.69035   -0.176472           
         C         C         0.65989   0.10758   0.68006   -0.173561           
         C         C         0.84146   0.61007   0.83590   -0.167691           
         C         C         0.34116   0.11163   0.83128   -0.170678           
         C         C         0.84974   0.35872   0.72206   0.192783  
         C         C         0.34874   0.85850   0.71593   0.197168  
         C         C         0.14719   0.35792   0.79353   0.194406  
         C         C         0.64911   0.85876   0.78510   0.194494  
         C         C         0.14662   0.64081   0.78521   0.195395  
         C         C         0.64962   0.13841   0.77616   0.196832  
         C         C         0.84827   0.64074   0.72510   0.195145  
         C         C         0.35044   0.14184   0.72046   0.192934  
         C         C         0.88176   0.36526   0.62146   -0.150307           
         C         C         0.38414   0.86229   0.63480   -0.155298           
         C         C         0.11037   0.35893   0.86168   -0.159353           
         C         C         0.61400   0.85928   0.86843   -0.161360           
         C         C         0.11076   0.63651   0.86211   -0.153393           
         C         C         0.61418   0.13618   0.85723   -0.156691           
         C         C         0.88021   0.63783   0.62351   -0.155462           
         C         C         0.38361   0.13752   0.62679   -0.152856           
         C         C         0.90584   0.39717   0.63267   -0.133948           
         C         C         0.40728   0.89458   0.65209   -0.135286           
         C         C         0.08769   0.39205   0.83930   -0.129044           
         C         C         0.59000   0.89150   0.85340   -0.126883           
         C         C         0.08796   0.60418   0.84085   -0.134614           
         C         C         0.58993   0.10455   0.84353   -0.131520           
         C         C         0.90418   0.60512   0.63035   -0.130283           
         C         C         0.40661   0.10429   0.64230   -0.131529           
         H         H         0.96738   0.39646   0.71454   0.109609  
         H         H         0.46521   0.89523   0.75272   0.107711  
         H         H         0.03463   0.39745   0.69922   0.105864  
         H         H         0.53225   0.89566   0.73563   0.106633  
         H         H         0.03292   0.60311   0.71011   0.107532  
         H         H         0.53193   0.10164   0.73840   0.106966  
         H         H         0.96574   0.60281   0.72078   0.108809  
         H         H         0.46447   0.10130   0.75606   0.107256  
         H         H         0.86078   0.43869   0.93112   0.108173  
         H         H         0.35065   0.94358   0.90664   0.109760  
         H         H         0.14913   0.45072   0.61421   0.109264  
         H         H         0.64518   0.95061   0.60462   0.110016  
         H         H         0.14689   0.55505   0.59602   0.107316  
         H         H         0.64444   0.05163   0.59573   0.109337  
         H         H         0.86000   0.55400   0.92892   0.109637  
         H         H         0.35699   0.05585   0.93437   0.110110  
         H         H         0.81888   0.38078   0.91769   0.114958  
         H         H         0.30951   0.88682   0.87403   0.111900  
         H         H         0.18990   0.39262   0.65880   0.109061  
         H         H         0.68810   0.89309   0.62964   0.114575  
         H         H         0.18727   0.61239   0.63247   0.109026  
         H         H         0.68695   0.10845   0.61514   0.113046  
         H         H         0.81680   0.61121   0.91496   0.112480  
         H         H         0.31573   0.11405   0.90555   0.112247  
         H         H         0.88684   0.34525   0.53252   0.119599  
         H         H         0.39271   0.84021   0.55478   0.124279  
         H         H         0.10042   0.33340   0.93436   0.125398  
         H         H         0.60654   0.83402   0.94581   0.124646  
         H         H         0.10172   0.65856   0.94168   0.125766  
         H         H         0.60656   0.15942   0.93363   0.122832  
         H         H         0.88479   0.66133   0.53715   0.122254  
         H         H         0.39016   0.16045   0.53961   0.122701  
         H         H         0.92989   0.40225   0.55186   0.103941  
         H         H         0.43356   0.89809   0.58229   0.110743  
         H         H         0.06004   0.39307   0.89952   0.113210  
         H         H         0.56356   0.89229   0.92270   0.110469  
         H         H         0.06091   0.60100   0.90538   0.112453  
         H         H         0.56321   0.10329   0.91099   0.110709  
         H         H         0.92728   0.60244   0.54487   0.106430  
         H         H         0.43131   0.10086   0.56483   0.108873  
         C         C         0.90215   0.49908   0.75162   -0.185917           
         C         C         0.40087   0.99883   0.76610   -0.185520           
         C         C         0.09610   0.50007   0.73339   -0.190666           
         C         C         0.59540   0.99871   0.74763   -0.186386           
         C         C         0.01963   0.49989   0.71925   0.003567  
         C         C         0.51815   0.99843   0.75275   0.003204  
         C         C         0.97999   0.49972   0.72178   0.004044  
         C         C         0.47842   0.99834   0.75533   0.002762  
         H         H         0.87202   0.49856   0.76008   0.110002  
         H         H         0.37101   -0.00066  0.76475   0.105521  
         H         H         0.12511   0.50003   0.75007   0.103891  
         H         H         0.62503   0.99862   0.75361   0.102247  
         N         N         0.32783   0.17481   0.68948   -0.271126           
         N         N         0.82426   0.67257   0.69844   -0.266696           
         N         N         0.67352   0.16915   0.80557   -0.257217           
         N         N         0.16827   0.67348   0.81605   -0.268337           
         N         N         0.67132   0.82519   0.80978   -0.264037           
         N         N         0.16914   0.32477   0.82742   -0.271049           
         N         N         0.32591   0.82684   0.68653   -0.260953           
         N         N         0.82640   0.32690   0.69559   -0.267600           
         C         C         0.30277   0.18699   0.78845   0.083896  
         C         C         0.80195   0.68788   0.79963   0.082826  
         C         C         0.69675   0.18638   0.70534   0.077608  
         C         C         0.19409   0.68801   0.71880   0.082901  
         C         C         0.69280   0.81060   0.70466   0.083928  
         C         C         0.19352   0.31151   0.72767   0.092627  
         C         C         0.30223   0.81071   0.78830   0.080746  
         C         C         0.80349   0.30987   0.79739   0.077016  
         C         C         0.27590   0.21875   0.76602   -0.016709           
         C         C         0.77459   0.71865   0.76704   -0.028822           
         C         C         0.72357   0.21692   0.73604   -0.025359           
         C         C         0.21997   0.71996   0.74144   -0.019004           
         C         C         0.71838   0.77734   0.72824   -0.022369           
         C         C         0.22053   0.27975   0.74939   -0.013783           
         C         C         0.27520   0.78003   0.76480   -0.018318           
         C         C         0.77779   0.27764   0.77046   -0.024767           
         C         C         0.24563   0.22207   0.87482   -0.277679           
         C         C         0.74166   0.72055   0.86331   -0.281997           
         C         C         0.75689   0.22147   0.64248   -0.290849           
         C         C         0.24891   0.72920   0.62916   -0.286825           
         C         C         0.75080   0.77504   0.62972   -0.288560           
         C         C         0.25069   0.27631   0.63995   -0.275684           
         C         C         0.24582   0.77157   0.87568   -0.284799           
         C         C         0.74446   0.27296   0.86454   -0.287884           
         C         C         0.21829   0.25151   0.86917   0.258928  
         C         C         0.71352   0.74845   0.84595   0.243079  
         C         C         0.78408   0.25002   0.65845   0.244622  
         C         C         0.27611   0.75819   0.63785   0.255172  
         C         C         0.77848   0.74659   0.64610   0.247635  
         C         C         0.27772   0.24653   0.64493   0.252318  
         C         C         0.21851   0.74264   0.86685   0.255824  
         C         C         0.71820   0.24305   0.85216   0.246524  
         H         H         0.24403   0.20041   0.96730   0.121775  
         H         H         0.73836   0.69913   0.95621   0.126256  
         H         H         0.76122   0.20158   0.55289   0.127560  
         H         H         0.24976   0.71257   0.53126   0.114708  
         H         H         0.75411   0.79694   0.53782   0.129403  
         H         H         0.25266   0.29811   0.54784   0.120416  
         H         H         0.24455   0.78897   0.97212   0.117655  
         H         H         0.73941   0.29355   0.95214   0.127621  
         O         O         0.18891   0.25372   0.97580   -0.426600           
         O         O         0.68145   0.74851   0.94105   -0.428927           
         O         O         0.81725   0.25146   0.56968   -0.431089           
         O         O         0.30426   0.76552   0.52860   -0.428647           
         O         O         0.80946   0.74527   0.54702   -0.429988           
         O         O         0.30653   0.24353   0.53725   -0.432923           
         O         O         0.19022   0.73592   0.97600   -0.419323           
         O         O         0.68697   0.23829   0.94953   -0.427247           
         H         H         0.30018   0.17393   0.89989   0.066660  
         H         H         0.19357   0.23447   0.05377   0.360380  
         H         H         0.80226   0.67942   0.91459   0.073463  
         H         H         0.68663   0.73314   0.02781   0.359565  
         H         H         0.69684   0.18042   0.59099   0.076011  
         H         H         0.81638   0.23182   0.49611   0.366448  
         H         H         0.19827   0.67655   0.60945   0.064297  
         H         H         0.29779   0.75292   0.44311   0.345886  
         H         H         0.69329   0.82249   0.59228   0.073212  
         H         H         0.80518   0.76263   0.46380   0.361601  
         H         H         0.19497   0.32427   0.61621   0.062819  
         H         H         0.30128   0.26106   0.45578   0.360055  
         H         H         0.30172   0.81861   0.90157   0.068943  
         H         H         0.19705   0.74879   0.06043   0.343691  
         H         H         0.80226   0.31747   0.91087   0.072562  
         H         H         0.68890   0.25604   0.02804   0.363823 

