
##########################################################################
#               Crystallographic Information Format file
#               Produced by PyCifRW module
#
#  This is a CIF file.  CIF has been adopted by the International
#  Union of Crystallography as the standard for data archiving and
#  transmission.
#
#  For information on this file format, follow the CIF links at
#  http://www.iucr.org
##########################################################################

data_image0

_cell_length_a                          33.9465
_cell_length_b                          34.8211
_cell_length_c                          10.855
_cell_angle_alpha                       85.0198
_cell_angle_beta                        89.4342
_cell_angle_gamma                       89.7783
_symmetry_space_group_name_H-M          'P 1'
_space_group_name_Hall                  'P 1'
loop_
  _atom_site_type_symbol
  _atom_site_label
  _atom_site_fract_x
  _atom_site_fract_y
  _atom_site_fract_z
  _atom_site_charge
         C         C         0.46196   0.96139   0.99057   0.030551  
         C         C         0.96436   0.46022   0.01024   0.026969  
         C         C         0.53908   0.03968   0.00138   0.031393  
         C         C         0.03591   0.54321   0.01242   0.025893  
         C         C         0.46598   0.04359   0.00042   0.028641  
         C         C         0.96283   0.54280   0.00859   0.026567  
         C         C         0.53498   0.95785   0.00357   0.028517  
         C         C         0.03756   0.46142   0.01163   0.029491  
         C         C         0.42956   0.02444   0.98316   -0.135961           
         C         C         0.92759   0.52102   0.99604   -0.136330           
         C         C         0.57192   0.97755   0.99586   -0.129696           
         C         C         0.07302   0.48354   0.00414   -0.133647           
         C         C         0.42778   0.98543   0.97558   -0.137280           
         C         C         0.92829   0.48165   -0.00181  -0.128427           
         C         C         0.57383   0.01677   0.99277   -0.136090           
         C         C         0.07231   0.52266   0.00558   -0.129198           
         C         C         0.46818   0.08416   0.00697   0.023326  
         C         C         0.96274   0.58355   0.01281   0.015986  
         C         C         0.53268   0.91707   0.00932   0.026228  
         C         C         0.03824   0.42064   0.01402   0.017467  
         C         C         0.46052   0.92047   0.99118   0.016858  
         C         C         0.96589   0.41938   0.01397   0.024587  
         C         C         0.54046   0.08034   0.00383   0.018291  
         C         C         0.03497   0.58376   0.01591   0.027162  
         C         C         0.43265   0.10867   0.01437   0.074285  
         C         C         0.92554   0.60596   0.01635   0.083179  
         C         C         0.56853   0.89307   0.02370   0.065858  
         C         C         0.07598   0.39892   0.01693   0.083208  
         C         C         0.42371   0.89821   0.98301   0.079960  
         C         C         0.92998   0.39532   0.02151   0.066973  
         C         C         0.57749   0.10239   0.00349   0.080383  
         C         C         0.07191   0.60595   0.02352   0.070328  
         C         C         0.40303   0.09975   0.10339   -0.139189           
         C         C         0.89650   0.59699   0.10727   -0.135618           
         C         C         0.59512   0.89735   0.12037   -0.142006           
         C         C         0.10367   0.40239   0.11081   -0.134531           
         C         C         0.38978   0.90486   0.05359   -0.139945           
         C         C         0.90346   0.39612   0.12103   -0.141160           
         C         C         0.60800   0.09278   0.08742   -0.134319           
         C         C         0.09593   0.60052   0.12802   -0.140399           
         C         C         0.36981   0.12312   0.10980   -0.132479           
         C         C         0.86164   0.61824   0.10917   -0.124860           
         C         C         0.62862   0.87422   0.13355   -0.130488           
         C         C         0.13886   0.38162   0.11262   -0.120158           
         C         C         0.35664   0.88163   0.04884   -0.134889           
         C         C         0.87110   0.37144   0.13068   -0.125546           
         C         C         0.64127   0.11604   0.08818   -0.133440           
         C         C         0.12964   0.62280   0.13754   -0.126847           
         C         C         0.36491   0.15625   0.02723   0.052084  
         C         C         0.85469   0.64903   0.01986   0.036545  
         C         C         0.63674   0.84672   0.04924   0.055318  
         C         C         0.14757   0.35714   0.01992   0.036650  
         C         C         0.35658   0.85015   0.97603   0.047250  
         C         C         0.86332   0.34644   0.03889   0.052533  
         C         C         0.64455   0.14966   0.00719   0.047850  
         C         C         0.14110   0.64974   0.04000   0.052655  
         C         C         0.39495   0.16561   0.93940   -0.110279           
         C         C         0.88392   0.65860   0.93010   -0.110961           
         C         C         0.61040   0.84266   0.95151   -0.111132           
         C         C         0.11997   0.35346   0.92611   -0.106261           
         C         C         0.39011   0.84372   0.90369   -0.106142           
         C         C         0.89030   0.34538   0.94014   -0.109515           
         C         C         0.61438   0.15915   0.92232   -0.107475           
         C         C         0.11783   0.65406   0.93333   -0.112351           
         C         C         0.42819   0.14235   0.93384   -0.141106           
         C         C         0.91873   0.63756   0.92905   -0.136775           
         C         C         0.57671   0.86534   0.93969   -0.142852           
         C         C         0.08469   0.37387   0.92505   -0.140618           
         C         C         0.42276   0.86733   0.90695   -0.133222           
         C         C         0.92323   0.36917   0.93242   -0.143367           
         C         C         0.58156   0.13563   0.92004   -0.136260           
         C         C         0.08340   0.63289   0.92618   -0.143213           
         C         C         0.32912   0.17945   0.03667   0.057970  
         C         C         0.81832   0.67148   0.02395   0.062197  
         C         C         0.67226   0.82323   0.06555   0.053140  
         C         C         0.18386   0.33454   0.02615   0.065217  
         C         C         0.32306   0.82413   0.98083   0.031233  
         C         C         0.82755   0.32281   0.04941   0.077155  
         C         C         0.67915   0.17370   0.01607   0.036052  
         C         C         0.17666   0.67277   0.05122   0.080596  
         C         C         0.78214   0.28075   0.96764   0.111116  
         C         C         0.29300   0.76487   0.95094   0.088197  
         C         C         0.22700   0.71323   0.96260   0.111062  
         C         C         0.71565   0.23057   0.96856   0.088630  
         C         C         0.77727   0.72295   0.95995   0.090565  
         C         C         0.28970   0.23386   0.96682   0.098491  
         C         C         0.22730   0.28938   0.95226   0.094989  
         C         C         0.71316   0.77446   0.98792   0.097368  
         C         C         0.75881   0.27862   0.86132   -0.173958           
         C         C         0.28848   0.73681   0.86475   -0.170472           
         C         C         0.25606   0.71254   0.86803   -0.183207           
         C         C         0.72544   0.25582   0.86371   -0.180913           
         C         C         0.74544   0.72444   0.87617   -0.203814           
         C         C         0.29050   0.26719   0.88148   -0.163585           
         C         C         0.25945   0.29316   0.86928   -0.190258           
         C         C         0.71391   0.74907   0.89225   -0.151561           
         C         C         0.74020   0.23120   0.07322   0.088069  
         C         C         0.23262   0.73881   0.05564   0.122990  
         C         C         0.26520   0.76361   0.04996   0.084250  
         C         C         0.77148   0.25725   0.07542   0.134628  
         C         C         0.74574   0.77338   0.07037   0.132975  
         C         C         0.22645   0.25725   0.04095   0.079317  
         C         C         0.25653   0.22928   0.04762   0.137359  
         C         C         0.77719   0.74765   0.05684   0.070691  
         H         H         0.40301   0.04191   0.97247   0.109211  
         H         H         0.89973   0.53634   0.98399   0.108216  
         H         H         0.59881   0.96086   0.98860   0.112796  
         H         H         0.10088   0.46847   0.99635   0.111197  
         H         H         0.39974   0.97223   0.95753   0.106891  
         H         H         0.90110   0.46591   0.98783   0.112123  
         H         H         0.60216   0.03113   0.98267   0.108636  
         H         H         0.09957   0.53901   -0.00121  0.113667  
         H         H         0.40670   0.07447   0.16819   0.112232  
         H         H         0.90169   0.57335   0.17712   0.115748  
         H         H         0.58910   0.91879   0.18535   0.111659  
         H         H         0.09709   0.42116   0.18330   0.115001  
         H         H         0.38987   0.92781   0.11495   0.117106  
         H         H         0.90944   0.41534   0.19228   0.109920  
         H         H         0.60496   0.06798   0.15473   0.116760  
         H         H         0.08726   0.57918   0.20223   0.111417  
         H         H         0.34721   0.11588   0.17958   0.108715  
         H         H         0.83976   0.61174   0.18161   0.110977  
         H         H         0.64874   0.87707   0.20984   0.114482  
         H         H         0.15999   0.38420   0.18605   0.115595  
         H         H         0.33069   0.88725   0.10408   0.107288  
         H         H         0.85139   0.37148   0.21001   0.106431  
         H         H         0.66493   0.10918   0.15353   0.106441  
         H         H         0.14699   0.61960   0.22148   0.113653  
         H         H         0.39117   0.19119   0.87585   0.109789  
         H         H         0.87819   0.68253   0.86169   0.115208  
         H         H         0.61752   0.82162   0.88594   0.110791  
         H         H         0.12740   0.33470   0.85442   0.113933  
         H         H         0.38941   0.82020   0.84447   0.116358  
         H         H         0.88469   0.32558   0.87048   0.114384  
         H         H         0.61755   0.18518   0.86012   0.115679  
         H         H         0.12711   0.67478   0.85820   0.114997  
         H         H         0.45106   0.14945   0.86503   0.112345  
         H         H         0.94128   0.64510   0.85980   0.115671  
         H         H         0.55688   0.86272   0.86276   0.112831  
         H         H         0.06361   0.37077   0.85188   0.117673  
         H         H         0.44833   0.86234   0.84961   0.113548  
         H         H         0.94430   0.36840   0.85661   0.112326  
         H         H         0.55860   0.14241   0.85246   0.114617  
         H         H         0.06516   0.63678   0.84444   0.111944  
         H         H         0.30898   0.17033   0.11223   0.080956  
         H         H         0.79771   0.66332   0.10014   0.081766  
         H         H         0.69053   0.82739   0.14535   0.085859  
         H         H         0.20103   0.33509   0.11099   0.081201  
         H         H         0.29624   0.83456   0.02491   0.074878  
         H         H         0.81240   0.32159   0.13885   0.082237  
         H         H         0.70330   0.15996   0.06996   0.072933  
         H         H         0.18803   0.67445   0.14427   0.083980  
         H         H         0.76757   0.29649   0.77896   0.111299  
         H         H         0.31077   0.73485   0.79265   0.122727  
         H         H         0.25213   0.69219   0.79779   0.124507  
         H         H         0.70622   0.25650   0.78378   0.115861  
         H         H         0.74722   0.70715   0.79760   0.124103  
         H         H         0.31551   0.26971   0.81835   0.121810  
         H         H         0.26041   0.31741   0.79894   0.130161  
         H         H         0.68989   0.75206   0.82661   0.125719  
         O         O         0.73592   0.20835   0.18355   -0.439152           
         O         O         0.20576   0.74035   0.15089   -0.420562           
         O         O         0.26833   0.78569   0.15046   -0.445572           
         O         O         0.79084   0.25984   0.18315   -0.416743           
         O         O         0.74596   0.79651   0.16587   -0.405120           
         O         O         0.19454   0.24906   0.12044   -0.452527           
         O         O         0.25414   0.19854   0.13596   -0.417881           
         O         O         0.80757   0.74867   0.14078   -0.443014           
         N         N         0.32256   0.20980   0.96085   -0.289099           
         N         N         0.81051   0.69963   0.94251   -0.265998           
         N         N         0.68016   0.79822   0.98636   -0.276267           
         N         N         0.19488   0.31429   0.93792   -0.259943           
         N         N         0.32475   0.79057   0.93609   -0.278999           
         N         N         0.81491   0.30494   0.95759   -0.274072           
         N         N         0.68196   0.20811   0.95934   -0.275622           
         N         N         0.19394   0.68978   0.95481   -0.270839           
         C         C         0.50527   0.10139   0.00632   -0.189978           
         C         C         0.99878   0.60307   0.01492   -0.190167           
         C         C         0.49590   0.89954   0.00145   -0.187347           
         C         C         0.00253   0.40070   0.01374   -0.188523           
         C         C         0.49938   0.98005   -0.00081  0.000678  
         C         C         0.00047   0.48128   0.01105   0.002580  
         C         C         0.50147   0.02112   0.00088   0.002673  
         C         C         -0.00033  0.52240   0.01088   0.002346  
         H         H         0.50693   0.13233   0.01305   0.113557  
         H         H         0.99887   0.63408   0.02183   0.117822  
         H         H         0.49423   0.86823   0.00899   0.114882  
         H         H         0.00307   0.36934   0.01952   0.118666  
         H         H         0.29629   0.79226   0.15720   0.364027  
         H         H         0.77321   0.25058   0.24922   0.356472  
         H         H         0.70882   0.19930   0.19353   0.356849  
         H         H         0.21811   0.75539   0.21138   0.369122  
         H         H         0.23328   0.20360   0.19585   0.378919  
         H         H         0.82876   0.73204   0.11653   0.363970  
         H         H         0.76641   0.78599   0.22238   0.373522  
         H         H         0.17334   0.26665   0.09825   0.370017  
         C         C         0.46142   0.95843   0.50256   0.030624  
         C         C         0.96317   0.45707   0.49167   0.024211  
         C         C         0.53755   0.03850   0.49759   0.034467  
         C         C         0.03506   0.54027   0.49408   0.026530  
         C         C         0.46434   0.04090   0.49920   0.032081  
         C         C         0.96197   0.53921   0.48972   0.026556  
         C         C         0.53464   0.95599   0.51148   0.027578  
         C         C         0.03636   0.45778   0.49260   0.024886  
         C         C         0.42829   0.02107   0.48337   -0.136724           
         C         C         0.92644   0.51756   0.48106   -0.137811           
         C         C         0.57109   0.97634   0.49628   -0.128389           
         C         C         0.07185   0.48001   0.48921   -0.131326           
         C         C         0.42694   0.98185   0.48375   -0.135382           
         C         C         0.92696   0.47828   0.48315   -0.130039           
         C         C         0.57236   0.01572   0.48636   -0.136211           
         C         C         0.07125   0.51927   0.49009   -0.132003           
         C         C         0.46586   0.08156   0.50365   0.020799  
         C         C         0.96191   0.57990   0.49127   0.016707  
         C         C         0.53295   0.91512   0.51922   0.028319  
         C         C         0.03663   0.41687   0.49327   0.022937  
         C         C         0.46037   0.91740   0.50810   0.020512  
         C         C         0.96413   0.41619   0.49521   0.023135  
         C         C         0.53836   0.07945   0.49758   0.016623  
         C         C         0.03407   0.58104   0.49561   0.023308  
         C         C         0.42996   0.10559   0.50632   0.078215  
         C         C         0.92467   0.60177   0.49645   0.083382  
         C         C         0.56896   0.89088   0.52484   0.065781  
         C         C         0.07412   0.39466   0.50032   0.071307  
         C         C         0.42356   0.89490   0.50166   0.074114  
         C         C         0.92703   0.39345   0.50560   0.076086  
         C         C         0.57468   0.10296   0.49165   0.076222  
         C         C         0.07064   0.60360   0.50853   0.072399  
         C         C         0.39810   0.09542   0.58651   -0.134303           
         C         C         0.89732   0.59376   0.59278   -0.134942           
         C         C         0.59708   0.89268   0.61802   -0.140270           
         C         C         0.10027   0.39816   0.59800   -0.139996           
         C         C         0.38833   0.90275   0.56508   -0.136377           
         C         C         0.90110   0.39587   0.60624   -0.137930           
         C         C         0.60960   0.09240   0.55595   -0.138348           
         C         C         0.09330   0.59709   0.61577   -0.140484           
         C         C         0.36386   0.11759   0.58249   -0.135619           
         C         C         0.86210   0.61432   0.59480   -0.129598           
         C         C         0.63022   0.86894   0.62140   -0.129436           
         C         C         0.13534   0.37732   0.60656   -0.126635           
         C         C         0.35538   0.87924   0.55824   -0.135910           
         C         C         0.86627   0.37468   0.61560   -0.121324           
         C         C         0.64241   0.11651   0.54662   -0.134488           
         C         C         0.12743   0.61826   0.63122   -0.125999           
         C         C         0.36071   0.15111   0.50148   0.046793  
         C         C         0.85327   0.64309   0.50040   0.037501  
         C         C         0.63639   0.84290   0.53133   0.055348  
         C         C         0.14575   0.35285   0.51544   0.049826  
         C         C         0.35662   0.84606   0.49271   0.050120  
         C         C         0.85606   0.35084   0.52340   0.043898  
         C         C         0.64090   0.15297   0.47853   0.048138  
         C         C         0.14064   0.64558   0.53727   0.048441  
         C         C         0.39283   0.16194   0.42288   -0.102964           
         C         C         0.88114   0.65190   0.40583   -0.106832           
         C         C         0.60881   0.84164   0.43608   -0.110159           
         C         C         0.11960   0.34889   0.41817   -0.106747           
         C         C         0.39150   0.83840   0.42792   -0.108330           
         C         C         0.88232   0.34745   0.42438   -0.097999           
         C         C         0.60576   0.16419   0.41715   -0.110108           
         C         C         0.11785   0.65232   0.43053   -0.106717           
         C         C         0.42675   0.13951   0.42561   -0.135851           
         C         C         0.91635   0.63154   0.40454   -0.139990           
         C         C         0.57555   0.86499   0.43414   -0.138930           
         C         C         0.08427   0.36916   0.41147   -0.144212           
         C         C         0.42371   0.86268   0.43071   -0.134382           
         C         C         0.91712   0.36857   0.41555   -0.141188           
         C         C         0.57374   0.13945   0.42221   -0.132925           
         C         C         0.08313   0.63207   0.41704   -0.141879           
         C         C         0.32472   0.17397   0.50364   0.040451  
         C         C         0.81616   0.66414   0.50649   0.061342  
         C         C         0.67072   0.81758   0.54167   0.052231  
         C         C         0.18246   0.33097   0.52489   0.072227  
         C         C         0.32241   0.82073   0.49552   0.031851  
         C         C         0.81869   0.33028   0.53224   0.094273  
         C         C         0.67514   0.17797   0.47996   0.039010  
         C         C         0.17690   0.66740   0.55124   0.086248  
         C         C         0.77129   0.29105   0.45193   0.109540  
         C         C         0.29246   0.76089   0.47095   0.087170  
         C         C         0.22702   0.70913   0.46861   0.111247  
         C         C         0.70621   0.23851   0.45594   0.092294  
         C         C         0.77442   0.71556   0.44593   0.091805  
         C         C         0.29049   0.23208   0.45244   0.092643  
         C         C         0.22672   0.28588   0.44792   0.104655  
         C         C         0.70975   0.76752   0.46804   0.091880  
         C         C         0.73720   0.29988   0.38078   -0.186329           
         C         C         0.29142   0.73091   0.39011   -0.165738           
         C         C         0.25905   0.70682   0.38536   -0.185623           
         C         C         0.70528   0.27482   0.38469   -0.169948           
         C         C         0.74494   0.71923   0.35558   -0.200623           
         C         C         0.28080   0.25498   0.34347   -0.180989           
         C         C         0.24811   0.27912   0.34015   -0.173670           
         C         C         0.71287   0.74317   0.37072   -0.152339           
         C         C         0.74023   0.23009   0.53105   0.072603  
         C         C         0.22856   0.73752   0.55509   0.119830  
         C         C         0.26001   0.76377   0.55412   0.085743  
         C         C         0.77228   0.25554   0.52800   0.122947  
         C         C         0.74055   0.76455   0.55642   0.135409  
         C         C         0.23817   0.26453   0.55861   0.127103  
         C         C         0.26788   0.23629   0.55977   0.083025  
         C         C         0.77189   0.73831   0.54650   0.069592  
         H         H         0.40156   0.03795   0.46778   0.108087  
         H         H         0.89850   0.53286   0.47298   0.108524  
         H         H         0.59804   0.95965   0.48947   0.112183  
         H         H         0.09992   0.46514   0.48431   0.111942  
         H         H         0.39912   0.96817   0.46656   0.107233  
         H         H         0.89965   0.46241   0.47597   0.111768  
         H         H         0.60037   0.03009   0.46721   0.108222  
         H         H         0.09862   0.53544   0.48730   0.112502  
         H         H         0.40033   0.07018   0.65246   0.114979  
         H         H         0.90421   0.57145   0.66548   0.117466  
         H         H         0.59258   0.91241   0.68876   0.111198  
         H         H         0.09205   0.41669   0.66913   0.107723  
         H         H         0.38716   0.92680   0.62260   0.115070  
         H         H         0.90858   0.41460   0.67725   0.110708  
         H         H         0.61055   0.06573   0.61621   0.115982  
         H         H         0.08364   0.57538   0.68734   0.112064  
         H         H         0.33913   0.10920   0.64330   0.108750  
         H         H         0.84102   0.60827   0.66974   0.110978  
         H         H         0.65182   0.86978   0.69447   0.112198  
         H         H         0.15494   0.37958   0.68405   0.108648  
         H         H         0.32856   0.88610   0.60775   0.106401  
         H         H         0.84669   0.37640   0.69462   0.112259  
         H         H         0.66909   0.10790   0.59735   0.108131  
         H         H         0.14423   0.61351   0.71575   0.114279  
         H         H         0.39008   0.18753   0.35855   0.116314  
         H         H         0.87428   0.67451   0.33395   0.110227  
         H         H         0.61433   0.82230   0.36447   0.112292  
         H         H         0.12797   0.32894   0.35082   0.105857  
         H         H         0.39223   0.81335   0.37474   0.115395  
         H         H         0.87473   0.32791   0.35558   0.114474  
         H         H         0.60444   0.19242   0.36527   0.115580  
         H         H         0.12804   0.67397   0.35947   0.114039  
         H         H         0.45076   0.14745   0.36143   0.114284  
         H         H         0.93746   0.63709   0.32957   0.117418  
         H         H         0.55436   0.86434   0.36032   0.108349  
         H         H         0.06424   0.36606   0.33590   0.113152  
         H         H         0.44981   0.85702   0.37632   0.114582  
         H         H         0.93669   0.36708   0.33660   0.114226  
         H         H         0.54705   0.14839   0.37200   0.110684  
         H         H         0.06605   0.63747   0.33346   0.111150  
         H         H         0.29928   0.16017   0.55256   0.079793  
         H         H         0.79530   0.65383   0.57970   0.084313  
         H         H         0.68992   0.82068   0.62021   0.085044  
         H         H         0.19967   0.33326   0.60830   0.083369  
         H         H         0.29471   0.83413   0.52533   0.075093  
         H         H         0.80284   0.32921   0.62047   0.080701  
         H         H         0.70231   0.16319   0.51200   0.075362  
         H         H         0.18829   0.66801   0.64479   0.081843  
         H         H         0.73591   0.32670   0.32074   0.130372  
         H         H         0.31657   0.72709   0.32822   0.123147  
         H         H         0.25823   0.68464   0.31948   0.127988  
         H         H         0.67887   0.28282   0.33095   0.128838  
         H         H         0.74734   0.70179   0.27718   0.118724  
         H         H         0.29788   0.25016   0.26125   0.123960  
         H         H         0.23791   0.29333   0.25396   0.102840  
         H         H         0.69065   0.74728   0.29968   0.123705  
         O         O         0.74613   0.19626   0.61144   -0.454771           
         O         O         0.19770   0.73997   0.63762   -0.426263           
         O         O         0.25684   0.79097   0.64072   -0.441394           
         O         O         0.80449   0.24596   0.59973   -0.417493           
         O         O         0.74035   0.78596   0.65569   -0.409367           
         O         O         0.21697   0.26922   0.66343   -0.423290           
         O         O         0.27419   0.21494   0.67135   -0.439833           
         O         O         0.80034   0.73903   0.63673   -0.453420           
         N         N         0.32358   0.20857   0.44866   -0.259103           
         N         N         0.80829   0.69341   0.42935   -0.269249           
         N         N         0.67715   0.79231   0.46272   -0.274337           
         N         N         0.19382   0.31029   0.43729   -0.273184           
         N         N         0.32508   0.78553   0.46337   -0.276633           
         N         N         0.80456   0.31455   0.43835   -0.252903           
         N         N         0.67319   0.21490   0.44622   -0.287479           
         N         N         0.19443   0.68524   0.45693   -0.263536           
         C         C         0.50253   0.09947   0.50315   -0.185222           
         C         C         0.99763   0.59993   0.49074   -0.188304           
         C         C         0.49626   0.89708   0.51643   -0.189135           
         C         C         0.00062   0.39721   0.49247   -0.187347           
         C         C         0.49868   0.97774   0.50670   0.001531  
         C         C         -0.00052  0.47802   0.49096   0.000234  
         C         C         0.50022   0.01903   0.50275   0.002542  
         C         C         0.99890   0.51920   0.49100   0.003407  
         H         H         0.50327   0.13041   0.51084   0.109828  
         H         H         0.99690   0.63105   0.49454   0.118553  
         H         H         0.49582   0.86571   0.52425   0.114769  
         H         H         0.00108   0.36585   0.49692   0.120237  
         H         H         0.28396   0.79739   0.66221   0.358100  
         H         H         0.79761   0.22232   0.65144   0.366739  
         H         H         0.72385   0.19420   0.66848   0.368739  
         H         H         0.20623   0.75687   0.70041   0.371641  
         H         H         0.30173   0.20651   0.67389   0.361540  
         H         H         0.82475   0.72654   0.61157   0.373462  
         H         H         0.75937   0.77451   0.71402   0.366995  
         H         H         0.23041   0.25466   0.73206   0.363221 

