
##########################################################################
#               Crystallographic Information Format file
#               Produced by PyCifRW module
#
#  This is a CIF file.  CIF has been adopted by the International
#  Union of Crystallography as the standard for data archiving and
#  transmission.
#
#  For information on this file format, follow the CIF links at
#  http://www.iucr.org
##########################################################################

data_image0

_cell_length_a                          37.9516
_cell_length_b                          42.6969
_cell_length_c                          8.08325
_cell_angle_alpha                       90.5651
_cell_angle_beta                        88.5915
_cell_angle_gamma                       90.0067
_symmetry_space_group_name_H-M          'P 1'
_space_group_name_Hall                  'P 1'
loop_
  _atom_site_type_symbol
  _atom_site_label
  _atom_site_fract_x
  _atom_site_fract_y
  _atom_site_fract_z
  _atom_site_charge
         C         C         0.96838   0.46676   0.16747   0.036094  
         C         C         0.46824   0.96751   0.29452   0.034699  
         C         C         0.03485   0.53302   0.17936   0.036181  
         C         C         0.53363   0.03470   0.30289   0.035222  
         C         C         0.96931   0.53360   0.16676   0.033224  
         C         C         0.46817   0.03445   0.29905   0.034068  
         C         C         0.03383   0.46589   0.18411   0.035055  
         C         C         0.53381   0.96753   0.29662   0.034908  
         C         C         0.93784   0.51643   0.13528   -0.132434           
         C         C         0.43678   0.01696   0.27036   -0.133238           
         C         C         0.06603   0.48298   0.16666   -0.134437           
         C         C         0.56555   0.98521   0.27518   -0.135417           
         C         C         0.93740   0.48442   0.13528   -0.132054           
         C         C         0.43683   0.98497   0.26814   -0.134875           
         C         C         0.06650   0.51499   0.16277   -0.135032           
         C         C         0.56540   0.01723   0.27811   -0.134310           
         C         C         0.96965   0.56673   0.18685   0.024340  
         C         C         0.46829   0.06761   0.31555   0.026768  
         C         C         0.03269   0.43281   0.20242   0.023481  
         C         C         0.53333   0.93429   0.30814   0.022875  
         C         C         0.96788   0.43374   0.18594   0.022470  
         C         C         0.46831   0.93433   0.30847   0.024694  
         C         C         0.03476   0.56625   0.19555   0.022425  
         C         C         0.53324   0.06794   0.31896   0.025452  
         C         C         0.93747   0.58626   0.19946   0.073588  
         C         C         0.43575   0.08650   0.32225   0.071261  
         C         C         0.06395   0.41270   0.22151   0.072503  
         C         C         0.56532   0.91469   0.31404   0.073036  
         C         C         0.93565   0.41442   0.19096   0.074971  
         C         C         0.43592   0.91517   0.31862   0.072380  
         C         C         0.06686   0.58571   0.20791   0.071575  
         C         C         0.56556   0.08720   0.32750   0.068901  
         C         C         0.90735   0.57754   0.29329   -0.136687           
         C         C         0.40589   0.07802   0.41829   -0.135847           
         C         C         0.09254   0.42087   0.32077   -0.137219           
         C         C         0.59501   0.92288   0.40597   -0.136810           
         C         C         0.90544   0.42219   0.28679   -0.137372           
         C         C         0.40593   0.92426   0.41318   -0.135559           
         C         C         0.09644   0.57764   0.30048   -0.138207           
         C         C         0.59498   0.07870   0.41998   -0.134585           
         C         C         0.87878   0.59788   0.31462   -0.122759           
         C         C         0.37612   0.09713   0.42578   -0.127615           
         C         C         0.12057   0.40023   0.34101   -0.121500           
         C         C         0.62394   0.90288   0.41295   -0.127421           
         C         C         0.87745   0.40118   0.30239   -0.119414           
         C         C         0.37648   0.90486   0.42587   -0.129820           
         C         C         0.12496   0.59809   0.31440   -0.121180           
         C         C         0.62457   0.09799   0.42719   -0.129296           
         C         C         0.87900   0.62752   0.24013   0.051695  
         C         C         0.37526   0.12529   0.33725   0.050722  
         C         C         0.12113   0.37081   0.26094   0.048159  
         C         C         0.62428   0.87402   0.32767   0.048966  
         C         C         0.87855   0.37208   0.21973   0.046372  
         C         C         0.37577   0.87580   0.34288   0.051439  
         C         C         0.12517   0.62722   0.23442   0.049672  
         C         C         0.62594   0.12640   0.34081   0.052758  
         C         C         0.90881   0.63613   0.14380   -0.103716           
         C         C         0.40516   0.13391   0.24156   -0.096055           
         C         C         0.09251   0.36253   0.16181   -0.103374           
         C         C         0.59465   0.86567   0.23565   -0.097241           
         C         C         0.90827   0.36467   0.11939   -0.099812           
         C         C         0.40575   0.86651   0.24864   -0.098136           
         C         C         0.09584   0.63518   0.14030   -0.104589           
         C         C         0.59651   0.13520   0.24923   -0.100582           
         C         C         0.93735   0.61605   0.12487   -0.132482           
         C         C         0.43474   0.11490   0.23477   -0.130580           
         C         C         0.06465   0.38299   0.14265   -0.131605           
         C         C         0.56591   0.88558   0.22944   -0.130251           
         C         C         0.93622   0.38534   0.10629   -0.134882           
         C         C         0.43512   0.88573   0.23748   -0.128914           
         C         C         0.06749   0.61497   0.12774   -0.130796           
         C         C         0.56704   0.11606   0.24365   -0.127347           
         C         C         0.84998   0.64973   0.26674   0.070829  
         C         C         0.34424   0.14550   0.34517   0.072394  
         C         C         0.15022   0.34889   0.28197   0.070511  
         C         C         0.65453   0.85313   0.33670   0.069717  
         C         C         0.85052   0.34901   0.24234   0.070065  
         C         C         0.34480   0.85552   0.35442   0.071123  
         C         C         0.15386   0.64976   0.25413   0.068570  
         C         C         0.65699   0.14652   0.34729   0.070769  
         H         H         0.91385   0.52927   0.11062   0.106087  
         H         H         0.41253   0.02953   0.24759   0.104446  
         H         H         0.09062   0.47001   0.15537   0.106651  
         H         H         0.59030   0.97286   0.25428   0.104524  
         H         H         0.91312   0.47194   0.11030   0.106763  
         H         H         0.41263   0.97227   0.24450   0.104668  
         H         H         0.09149   0.52711   0.14624   0.107003  
         H         H         0.58990   0.03001   0.25976   0.104011  
         H         H         0.90720   0.55522   0.35696   0.105196  
         H         H         0.40673   0.05696   0.49259   0.105089  
         H         H         0.09188   0.44302   0.38841   0.103976  
         H         H         0.59465   0.94445   0.47848   0.103393  
         H         H         0.90491   0.44402   0.35721   0.106378  
         H         H         0.40647   0.94606   0.48362   0.104716  
         H         H         0.09621   0.55598   0.37014   0.104996  
         H         H         0.59408   0.05740   0.49240   0.104058  
         H         H         0.85644   0.59111   0.39359   0.108521  
         H         H         0.35358   0.09055   0.50384   0.102850  
         H         H         0.14199   0.40675   0.42167   0.106984  
         H         H         0.64623   0.90924   0.48852   0.103009  
         H         H         0.85512   0.40681   0.38447   0.107911  
         H         H         0.35405   0.91192   0.50405   0.102846  
         H         H         0.14686   0.59175   0.39192   0.108494  
         H         H         0.64667   0.09128   0.50262   0.103225  
         H         H         0.90867   0.65891   0.08464   0.111018  
         H         H         0.40425   0.15563   0.17273   0.114235  
         H         H         0.09326   0.33999   0.09791   0.109061  
         H         H         0.59503   0.84349   0.16835   0.116595  
         H         H         0.90853   0.34232   0.05377   0.110657  
         H         H         0.40506   0.84410   0.18364   0.115829  
         H         H         0.09628   0.65746   0.07631   0.110535  
         H         H         0.59767   0.15714   0.18201   0.116111  
         H         H         0.95987   0.62303   0.04797   0.107751  
         H         H         0.45733   0.12140   0.15702   0.108217  
         H         H         0.04335   0.37659   0.06119   0.107234  
         H         H         0.54365   0.87912   0.15407   0.108289  
         H         H         0.95889   0.37950   0.02702   0.108127  
         H         H         0.45769   0.87845   0.16093   0.109698  
         H         H         0.04554   0.62124   0.05063   0.108097  
         H         H         0.54492   0.12291   0.16908   0.107745  
         H         H         0.83177   0.64522   0.37174   0.071677  
         H         H         0.32421   0.14034   0.44183   0.066276  
         H         H         0.16841   0.35407   0.38246   0.071960  
         H         H         0.67372   0.85857   0.43265   0.065593  
         H         H         0.83150   0.35295   0.34523   0.071524  
         H         H         0.32478   0.86126   0.45066   0.067395  
         H         H         0.17156   0.64602   0.35772   0.072012  
         H         H         0.67594   0.14164   0.44461   0.065937  
         N         N         0.84773   0.67412   0.17373   -0.298150           
         N         N         0.34148   0.16860   0.24417   -0.294604           
         N         N         0.15298   0.32435   0.18706   -0.297305           
         N         N         0.65793   0.82915   0.23859   -0.291916           
         N         N         0.84980   0.32429   0.14862   -0.293477           
         N         N         0.34201   0.83163   0.25619   -0.291700           
         N         N         0.15642   0.67374   0.15758   -0.295564           
         N         N         0.66092   0.16946   0.24527   -0.295365           
         C         C         0.00220   0.58178   0.20154   -0.185390           
         C         C         -0.00019  0.41801   0.20455   -0.182146           
         C         C         0.50059   0.08323   0.32612   -0.184930           
         C         C         0.50074   0.91894   0.31642   -0.183435           
         C         C         0.00139   0.48303   0.17441   0.002913  
         C         C         0.00187   0.51661   0.17336   0.006392  
         C         C         0.50101   0.98425   0.29801   0.006380  
         C         C         0.50094   0.01783   0.30079   0.004528  
         H         H         0.00209   0.60689   0.22517   0.104724  
         H         H         0.99901   0.39300   0.22785   0.103930  
         H         H         0.50016   0.10849   0.34486   0.109031  
         H         H         0.50074   0.89375   0.33496   0.106837  
         C         C         0.17982   0.30223   0.20221   0.155262  
         C         C         0.17358   0.27225   0.13593   -0.122245           
         C         C         0.19930   0.24929   0.14627   -0.176114           
         C         C         0.23153   0.25680   0.21878   0.163670  
         N         N         0.23854   0.28583   0.27696   -0.241070           
         C         C         0.21335   0.30756   0.26929   0.006423  
         H         H         0.14862   0.26786   0.07664   0.117604  
         H         H         0.19514   0.22606   0.09369   0.106958  
         H         H         0.22027   0.33077   0.31608   0.091318  
         C         C         0.68733   0.80962   0.24666   0.155883  
         C         C         0.68267   0.77779   0.20368   0.025984  
         N         N         0.70821   0.75638   0.20221   -0.246601           
         C         C         0.74096   0.76584   0.24053   0.164897  
         C         C         0.74840   0.79705   0.28495   -0.170310           
         C         C         0.72144   0.81914   0.28875   -0.148929           
         H         H         0.65644   0.76994   0.16978   0.101286  
         H         H         0.77506   0.80365   0.31749   0.108244  
         H         H         0.72664   0.84349   0.32120   0.108678  
         C         C         0.82110   0.69651   0.19640   0.155220  
         C         C         0.82787   0.72667   0.13554   -0.122182           
         C         C         0.80217   0.74969   0.15283   -0.176241           
         C         C         0.76937   0.74207   0.22628   0.162539  
         N         N         0.76203   0.71292   0.28044   -0.239621           
         C         C         0.78720   0.69118   0.26655   0.004664  
         H         H         0.85319   0.73123   0.07470   0.118671  
         H         H         0.80682   0.77303   0.10413   0.107689  
         H         H         0.77990   0.66789   0.30983   0.092016  
         C         C         0.31212   0.18829   0.24746   0.153341  
         C         C         0.31759   0.21920   0.19197   0.028592  
         N         N         0.29258   0.24104   0.18672   -0.248060           
         C         C         0.25944   0.23268   0.23142   0.165519  
         C         C         0.25099   0.20221   0.28387   -0.170964           
         C         C         0.27753   0.17989   0.29431   -0.147073           
         H         H         0.34412   0.22586   0.15115   0.099919  
         H         H         0.22386   0.19640   0.31766   0.108916  
         H         H         0.27160   0.15626   0.33591   0.108488  
         C         C         0.18249   0.69652   0.17808   0.156707  
         C         C         0.17554   0.72680   0.12072   -0.122923           
         C         C         0.20051   0.75023   0.14110   -0.174451           
         C         C         0.23267   0.74295   0.21439   0.164166  
         N         N         0.24038   0.71361   0.26282   -0.242327           
         C         C         0.21598   0.69142   0.24528   0.006398  
         H         H         0.15068   0.73115   0.06088   0.118426  
         H         H         0.19579   0.77375   0.09603   0.106752  
         H         H         0.22341   0.66795   0.28376   0.092470  
         C         C         0.69037   0.18896   0.24718   0.155993  
         C         C         0.68559   0.21989   0.19177   0.027992  
         N         N         0.71100   0.24130   0.18176   -0.246002           
         C         C         0.74379   0.23279   0.22410   0.161685  
         C         C         0.75133   0.20252   0.28095   -0.169611           
         C         C         0.72453   0.18038   0.29257   -0.147821           
         H         H         0.65931   0.22693   0.15480   0.101151  
         H         H         0.77797   0.19659   0.31608   0.106855  
         H         H         0.72990   0.15669   0.33370   0.108790  
         C         C         0.82355   0.30178   0.16897   0.162417  
         C         C         0.83242   0.27025   0.13891   -0.127693           
         C         C         0.80661   0.24747   0.15770   -0.176154           
         C         C         0.77198   0.25646   0.20296   0.158550  
         N         N         0.76283   0.28681   0.22464   -0.235577           
         C         C         0.78785   0.30850   0.20811   0.000476  
         H         H         0.85941   0.26445   0.10193   0.119389  
         H         H         0.81292   0.22293   0.13405   0.107305  
         H         H         0.77932   0.33284   0.22226   0.090293  
         C         C         0.31275   0.81189   0.25939   0.154642  
         C         C         0.31875   0.78034   0.21241   0.026845  
         N         N         0.29375   0.75859   0.20287   -0.243876           
         C         C         0.26010   0.76729   0.23658   0.160938  
         C         C         0.25130   0.79816   0.28402   -0.171256           
         C         C         0.27770   0.82067   0.29591   -0.148205           
         H         H         0.34574   0.77317   0.18193   0.099836  
         H         H         0.22395   0.80429   0.31163   0.107852  
         H         H         0.27123   0.84480   0.32904   0.108887  
         C         C         0.96526   0.46638   0.67261   0.036198  
         C         C         0.46550   0.96618   0.79742   0.033786  
         C         C         0.03150   0.53288   0.67282   0.035972  
         C         C         0.53103   0.03328   0.80003   0.036495  
         C         C         0.96587   0.53341   0.67012   0.034400  
         C         C         0.46537   0.03334   0.80406   0.034555  
         C         C         0.03089   0.46587   0.68175   0.036721  
         C         C         0.53097   0.96646   0.79151   0.034896  
         C         C         0.93412   0.51607   0.64798   -0.134235           
         C         C         0.43392   0.01573   0.77882   -0.135235           
         C         C         0.06289   0.48303   0.65871   -0.134769           
         C         C         0.56255   0.98391   0.76225   -0.134497           
         C         C         0.93384   0.48403   0.64807   -0.133827           
         C         C         0.43393   0.98371   0.77613   -0.134086           
         C         C         0.06316   0.51501   0.65352   -0.132992           
         C         C         0.56262   0.01588   0.76709   -0.134527           
         C         C         0.96643   0.56665   0.68396   0.023840  
         C         C         0.46562   0.06651   0.82350   0.024181  
         C         C         0.03028   0.43281   0.70255   0.024017  
         C         C         0.53084   0.93338   0.80699   0.024045  
         C         C         0.96532   0.43327   0.68920   0.023440  
         C         C         0.46595   0.93298   0.80979   0.023812  
         C         C         0.03148   0.56612   0.68635   0.023785  
         C         C         0.53072   0.06634   0.82248   0.022357  
         C         C         0.93466   0.58668   0.69698   0.072219  
         C         C         0.43357   0.08618   0.82985   0.069692  
         C         C         0.06183   0.41291   0.72118   0.071679  
         C         C         0.56326   0.91456   0.81387   0.070666  
         C         C         0.93326   0.41365   0.69354   0.073323  
         C         C         0.43404   0.91319   0.81663   0.072518  
         C         C         0.06356   0.58552   0.69875   0.071878  
         C         C         0.56290   0.08565   0.83001   0.073361  
         C         C         0.90517   0.57945   0.79846   -0.135948           
         C         C         0.40225   0.07789   0.91563   -0.136173           
         C         C         0.09118   0.42148   0.81480   -0.134846           
         C         C         0.59270   0.92398   0.90430   -0.134974           
         C         C         0.90318   0.42112   0.79089   -0.134446           
         C         C         0.40381   0.92081   0.91294   -0.138670           
         C         C         0.09236   0.57748   0.79623   -0.137360           
         C         C         0.59338   0.07644   0.91263   -0.135552           
         C         C         0.87736   0.60062   0.81960   -0.121192           
         C         C         0.37323   0.09792   0.92115   -0.126804           
         C         C         0.11912   0.40071   0.83576   -0.121169           
         C         C         0.62236   0.90490   0.91165   -0.130030           
         C         C         0.87493   0.40035   0.80382   -0.123435           
         C         C         0.37537   0.90021   0.92400   -0.126152           
         C         C         0.12081   0.59784   0.81311   -0.122041           
         C         C         0.62279   0.09596   0.91864   -0.129140           
         C         C         0.87775   0.62949   0.73729   0.048084  
         C         C         0.37441   0.12697   0.84082   0.052534  
         C         C         0.11907   0.37079   0.76158   0.049241  
         C         C         0.62356   0.87582   0.82854   0.050397  
         C         C         0.87557   0.37161   0.71732   0.048484  
         C         C         0.37590   0.87158   0.83648   0.049701  
         C         C         0.12160   0.62675   0.73145   0.049926  
         C         C         0.62286   0.12537   0.84183   0.053474  
         C         C         0.90696   0.63658   0.63362   -0.105339           
         C         C         0.40571   0.13550   0.75575   -0.100164           
         C         C         0.08991   0.36220   0.66694   -0.104486           
         C         C         0.59406   0.86623   0.73861   -0.098661           
         C         C         0.90538   0.36428   0.61731   -0.102628           
         C         C         0.40586   0.86406   0.73761   -0.098428           
         C         C         0.09299   0.63480   0.63267   -0.104933           
         C         C         0.59234   0.13479   0.76004   -0.098483           
         C         C         0.93473   0.61571   0.61466   -0.130275           
         C         C         0.43450   0.11554   0.75073   -0.127635           
         C         C         0.06210   0.38272   0.64756   -0.131035           
         C         C         0.56459   0.88522   0.73197   -0.129536           
         C         C         0.93356   0.38485   0.60606   -0.131920           
         C         C         0.43428   0.88439   0.72899   -0.129411           
         C         C         0.06463   0.61468   0.61752   -0.132121           
         C         C         0.56316   0.11537   0.75471   -0.132591           
         C         C         0.84939   0.65241   0.76197   0.071745  
         C         C         0.34410   0.14807   0.84675   0.068939  
         C         C         0.14818   0.34877   0.78226   0.069599  
         C         C         0.65432   0.85553   0.83779   0.068078  
         C         C         0.84669   0.34918   0.73573   0.069307  
         C         C         0.34606   0.85008   0.84832   0.068279  
         C         C         0.15060   0.64875   0.75407   0.070098  
         C         C         0.65364   0.14586   0.84689   0.067973  
         H         H         0.90977   0.52886   0.63040   0.107136  
         H         H         0.40948   0.02829   0.76040   0.103973  
         H         H         0.08744   0.47011   0.64350   0.106939  
         H         H         0.58687   0.97132   0.73430   0.104902  
         H         H         0.90922   0.47162   0.62970   0.105962  
         H         H         0.40950   0.97115   0.75587   0.103897  
         H         H         0.08792   0.52731   0.63293   0.107654  
         H         H         0.58704   0.02852   0.74372   0.105079  
         H         H         0.90506   0.55780   0.86830   0.104523  
         H         H         0.40116   0.05615   0.98439   0.104636  
         H         H         0.09142   0.44409   0.87784   0.104538  
         H         H         0.59155   0.94581   0.97465   0.105288  
         H         H         0.90296   0.44254   0.86472   0.104165  
         H         H         0.40343   0.94233   0.98594   0.104966  
         H         H         0.09154   0.55599   0.86732   0.106618  
         H         H         0.59343   0.05435   0.97832   0.104343  
         H         H         0.85557   0.59504   0.90433   0.107223  
         H         H         0.34949   0.09121   0.99049   0.102706  
         H         H         0.14098   0.40752   0.91311   0.108022  
         H         H         0.64458   0.91225   0.98543   0.103528  
         H         H         0.85260   0.40597   0.88590   0.108177  
         H         H         0.35273   0.90604   0.00384   0.102589  
         H         H         0.14210   0.59187   0.89512   0.108104  
         H         H         0.64584   0.08853   0.98567   0.103235  
         H         H         0.90694   0.65872   0.56828   0.110980  
         H         H         0.40659   0.15796   0.69337   0.118269  
         H         H         0.09004   0.33921   0.60786   0.110976  
         H         H         0.59531   0.84386   0.67322   0.116564  
         H         H         0.90555   0.34223   0.54869   0.111051  
         H         H         0.40595   0.84221   0.66713   0.115342  
         H         H         0.09380   0.65708   0.56857   0.111378  
         H         H         0.59253   0.15742   0.69940   0.116915  
         H         H         0.95678   0.62142   0.53185   0.106385  
         H         H         0.45813   0.12222   0.68070   0.109153  
         H         H         0.04038   0.37583   0.56986   0.106570  
         H         H         0.54234   0.87798   0.65848   0.109179  
         H         H         0.95613   0.37923   0.52556   0.108278  
         H         H         0.45697   0.87860   0.64963   0.108165  
         H         H         0.04309   0.62093   0.53787   0.106547  
         H         H         0.54020   0.12268   0.68704   0.108770  
         H         H         0.83168   0.64924   0.87032   0.072686  
         H         H         0.32457   0.14440   0.94748   0.065471  
         H         H         0.16598   0.35319   0.88530   0.074304  
         H         H         0.67352   0.86163   0.93270   0.064676  
         H         H         0.82768   0.35324   0.83863   0.072583  
         H         H         0.32699   0.85405   0.95106   0.066391  
         H         H         0.16780   0.64476   0.85931   0.071084  
         H         H         0.67349   0.14014   0.93886   0.065096  
         N         N         0.84683   0.67589   0.66292   -0.293914           
         N         N         0.34143   0.17022   0.73985   -0.292057           
         N         N         0.15144   0.32473   0.68419   -0.293979           
         N         N         0.65766   0.83145   0.74027   -0.293262           
         N         N         0.84506   0.32487   0.63942   -0.288745           
         N         N         0.34302   0.82717   0.74395   -0.289585           
         N         N         0.15433   0.67250   0.65705   -0.295157           
         N         N         0.65618   0.16960   0.74890   -0.294638           
         C         C         0.99905   0.58173   0.69279   -0.182394           
         C         C         0.99748   0.41780   0.70645   -0.185787           
         C         C         0.49816   0.08167   0.83600   -0.184312           
         C         C         0.49850   0.91780   0.81800   -0.183225           
         C         C         0.99822   0.48283   0.67548   0.002441  
         C         C         0.99852   0.51642   0.67248   0.005099  
         C         C         0.49817   0.98308   0.79727   0.005531  
         C         C         0.49818   0.01663   0.80114   0.005560  
         H         H         -0.00084  0.60697   0.71190   0.104945  
         H         H         0.99681   0.39278   0.72987   0.104242  
         H         H         0.49824   0.10675   0.86052   0.105649  
         H         H         0.49863   0.89265   0.83785   0.106924  
         C         C         0.17901   0.30335   0.69598   0.160368  
         C         C         0.17228   0.27197   0.65273   -0.127708           
         C         C         0.19917   0.25013   0.66195   -0.173057           
         C         C         0.23286   0.25987   0.71014   0.164355  
         N         N         0.24030   0.29021   0.74105   -0.239462           
         C         C         0.21413   0.31107   0.73414   -0.003565           
         H         H         0.14610   0.26550   0.61261   0.119186  
         H         H         0.19473   0.22576   0.62801   0.107490  
         H         H         0.22126   0.33556   0.75502   0.091616  
         C         C         0.68652   0.81122   0.74749   0.150354  
         C         C         0.68262   0.78150   0.67202   0.026158  
         N         N         0.70744   0.75936   0.66538   -0.247985           
         C         C         0.73875   0.76616   0.73234   0.170662  
         C         C         0.74531   0.79504   0.81116   -0.170679           
         C         C         0.71906   0.81770   0.81984   -0.140219           
         H         H         0.65759   0.77605   0.61478   0.098163  
         H         H         0.77076   0.79924   0.86634   0.106748  
         H         H         0.72385   0.84005   0.88110   0.109040  
         C         C         0.81998   0.69804   0.68328   0.157034  
         C         C         0.82731   0.72916   0.63933   -0.125004           
         C         C         0.80101   0.75156   0.65871   -0.175855           
         C         C         0.76717   0.74241   0.71407   0.165229  
         N         N         0.75922   0.71232   0.74758   -0.240198           
         C         C         0.78499   0.69109   0.73380   -0.002971           
         H         H         0.85338   0.73494   0.58983   0.119408  
         H         H         0.80604   0.77584   0.62615   0.109038  
         H         H         0.77761   0.66684   0.75869   0.092113  
         C         C         0.31266   0.19069   0.74347   0.154184  
         C         C         0.31811   0.22047   0.67297   0.024022  
         N         N         0.29364   0.24283   0.66635   -0.246245           
         C         C         0.26105   0.23612   0.72625   0.169077  
         C         C         0.25275   0.20692   0.79655   -0.170422           
         C         C         0.27863   0.18407   0.80631   -0.144847           
         H         H         0.34415   0.22589   0.62062   0.099086  
         H         H         0.22616   0.20257   0.84436   0.105364  
         H         H         0.27258   0.16138   0.86028   0.109204  
         C         C         0.18133   0.69429   0.67788   0.153969  
         C         C         0.17508   0.72509   0.62660   -0.126910           
         C         C         0.20117   0.74752   0.64535   -0.171913           
         C         C         0.23353   0.73876   0.71228   0.165516  
         N         N         0.24060   0.70891   0.75343   -0.243637           
         C         C         0.21522   0.68755   0.73650   0.003304  
         H         H         0.14987   0.73045   0.57231   0.119885  
         H         H         0.19721   0.77140   0.60375   0.108440  
         H         H         0.22223   0.66350   0.76667   0.090650  
         C         C         0.68518   0.18983   0.74822   0.145672  
         C         C         0.68112   0.21829   0.66344   0.027742  
         N         N         0.70592   0.24032   0.64807   -0.251127           
         C         C         0.73744   0.23469   0.71530   0.170538  
         C         C         0.74428   0.20698   0.80196   -0.168446           
         C         C         0.71805   0.18450   0.81976   -0.135672           
         H         H         0.65592   0.22274   0.60578   0.097125  
         H         H         0.76977   0.20376   0.85812   0.107550  
         H         H         0.72303   0.16327   0.88884   0.107497  
         C         C         0.81810   0.30292   0.65873   0.159762  
         C         C         0.82644   0.27121   0.63134   -0.127940           
         C         C         0.80014   0.24887   0.64996   -0.172575           
         C         C         0.76560   0.25847   0.69186   0.164663  
         N         N         0.75691   0.28896   0.71005   -0.239102           
         C         C         0.78244   0.31031   0.69449   -0.003108           
         H         H         0.85342   0.26493   0.59698   0.119454  
         H         H         0.80581   0.22420   0.62787   0.107720  
         H         H         0.77437   0.33480   0.70659   0.090531  
         C         C         0.31412   0.80698   0.75129   0.157632  
         C         C         0.31974   0.77591   0.69548   0.023739  
         N         N         0.29474   0.75408   0.68842   -0.242676           
         C         C         0.26159   0.76245   0.73405   0.162477  
         C         C         0.25327   0.79272   0.79307   -0.169313           
         C         C         0.27965   0.81522   0.80221   -0.147541           
         H         H         0.34635   0.76906   0.65616   0.099148  
         H         H         0.22636   0.79826   0.83266   0.106608  
         H         H         0.27362   0.83890   0.84537   0.108466 

