
##########################################################################
#               Crystallographic Information Format file
#               Produced by PyCifRW module
#
#  This is a CIF file.  CIF has been adopted by the International
#  Union of Crystallography as the standard for data archiving and
#  transmission.
#
#  For information on this file format, follow the CIF links at
#  http://www.iucr.org
##########################################################################

data_image0

_cell_length_a                          40.3173
_cell_length_b                          40.0043
_cell_length_c                          8.12725
_cell_angle_alpha                       89.192
_cell_angle_beta                        65.0178
_cell_angle_gamma                       89.7956
_symmetry_space_group_name_H-M          'P 1'
_space_group_name_Hall                  'P 1'
loop_
  _atom_site_type_symbol
  _atom_site_label
  _atom_site_fract_x
  _atom_site_fract_y
  _atom_site_fract_z
  _atom_site_charge
         C         C         0.97482   0.46616   0.25442   0.036269  
         C         C         0.47399   0.96669   0.25053   0.037171  
         C         C         0.03664   0.53744   0.25112   0.033459  
         C         C         0.53726   0.03714   0.24461   0.034335  
         C         C         0.97368   0.53731   0.26698   0.035669  
         C         C         0.47429   0.03785   0.26146   0.035025  
         C         C         0.03750   0.46565   0.24215   0.035333  
         C         C         0.53699   0.96533   0.23443   0.035956  
         C         C         0.94618   0.51910   0.23880   -0.131505           
         C         C         0.44638   0.02015   0.23385   -0.130319           
         C         C         0.07020   0.48470   0.19628   -0.136054           
         C         C         0.57001   0.98398   0.18664   -0.133930           
         C         C         0.94684   0.48497   0.23174   -0.131005           
         C         C         0.44624   0.98601   0.22860   -0.131230           
         C         C         0.06975   0.51885   0.20094   -0.133177           
         C         C         0.57011   0.01813   0.19203   -0.134100           
         C         C         0.97211   0.57254   0.28976   0.025491  
         C         C         0.47329   0.07301   0.28501   0.024694  
         C         C         0.03573   0.43013   0.26325   0.021091  
         C         C         0.53488   0.92980   0.25463   0.021537  
         C         C         0.97402   0.43074   0.26864   0.024925  
         C         C         0.47273   0.93122   0.26455   0.023678  
         C         C         0.03451   0.57273   0.27538   0.023625  
         C         C         0.53570   0.07242   0.27068   0.022581  
         C         C         0.94039   0.59275   0.30281   0.075724  
         C         C         0.44180   0.09338   0.29708   0.075894  
         C         C         0.06565   0.40926   0.26694   0.068683  
         C         C         0.56480   0.90872   0.25692   0.069808  
         C         C         0.94284   0.41045   0.27777   0.076703  
         C         C         0.44129   0.91112   0.27468   0.077331  
         C         C         0.06495   0.59321   0.27361   0.070172  
         C         C         0.56644   0.09255   0.26944   0.070810  
         C         C         0.90407   0.58373   0.41638   -0.131643           
         C         C         0.40546   0.08444   0.41070   -0.130777           
         C         C         0.09194   0.42081   0.32474   -0.137023           
         C         C         0.59099   0.92008   0.31586   -0.137836           
         C         C         0.90639   0.41857   0.39162   -0.131754           
         C         C         0.40474   0.91942   0.38650   -0.132323           
         C         C         0.09040   0.58139   0.33720   -0.138578           
         C         C         0.59239   0.08028   0.32894   -0.137712           
         C         C         0.87496   0.60362   0.42492   -0.132089           
         C         C         0.37642   0.10408   0.41646   -0.132649           
         C         C         0.12072   0.40061   0.31727   -0.127261           
         C         C         0.61974   0.89982   0.30829   -0.127995           
         C         C         0.87780   0.39794   0.40243   -0.131042           
         C         C         0.37616   0.89879   0.39632   -0.130885           
         C         C         0.11926   0.60133   0.32918   -0.126870           
         C         C         0.62149   0.10003   0.32036   -0.128129           
         C         C         0.88116   0.63310   0.31990   0.056636  
         C         C         0.38280   0.13320   0.30874   0.057731  
         C         C         0.12401   0.36763   0.25501   0.051423  
         C         C         0.62309   0.86687   0.24536   0.050776  
         C         C         0.88464   0.36883   0.29866   0.056030  
         C         C         0.38311   0.86941   0.29448   0.056094  
         C         C         0.12349   0.63420   0.25997   0.049075  
         C         C         0.62558   0.13322   0.25508   0.050320  
         C         C         0.91752   0.64259   0.20882   -0.095292           
         C         C         0.41913   0.14253   0.19681   -0.096348           
         C         C         0.09708   0.35533   0.20437   -0.115496           
         C         C         0.59638   0.85482   0.19233   -0.115151           
         C         C         0.92110   0.36057   0.18444   -0.097510           
         C         C         0.41963   0.86098   0.18255   -0.097073           
         C         C         0.09787   0.64651   0.19868   -0.113270           
         C         C         0.59941   0.14593   0.19852   -0.114227           
         C         C         0.94644   0.62286   0.20181   -0.133093           
         C         C         0.44800   0.12308   0.19286   -0.133066           
         C         C         0.06886   0.37570   0.20886   -0.126043           
         C         C         0.56823   0.87530   0.19654   -0.127127           
         C         C         0.94958   0.38088   0.17632   -0.133890           
         C         C         0.44803   0.88140   0.17421   -0.132202           
         C         C         0.06945   0.62640   0.20457   -0.129217           
         C         C         0.57086   0.12603   0.20417   -0.128070           
         C         C         0.85050   0.65347   0.32719   0.064983  
         C         C         0.35222   0.15380   0.31801   0.065559  
         C         C         0.15347   0.34627   0.25341   0.068107  
         C         C         0.65237   0.84542   0.24584   0.066534  
         C         C         0.85424   0.34757   0.31323   0.068075  
         C         C         0.35288   0.84805   0.30732   0.066942  
         C         C         0.15254   0.65519   0.26437   0.067750  
         C         C         0.65509   0.15398   0.25703   0.067663  
         H         H         0.92489   0.53294   0.21893   0.108948  
         H         H         0.42547   0.03439   0.21275   0.107988  
         H         H         0.09619   0.47175   0.15227   0.110222  
         H         H         0.59580   0.97068   0.14059   0.108812  
         H         H         0.92625   0.47163   0.20500   0.109360  
         H         H         0.42522   0.97314   0.20311   0.109316  
         H         H         0.09537   0.53231   0.16098   0.108613  
         H         H         0.59591   0.03130   0.15087   0.108635  
         H         H         0.89884   0.56146   0.50202   0.104401  
         H         H         0.40029   0.06243   0.49820   0.105037  
         H         H         0.08903   0.44555   0.38213   0.101024  
         H         H         0.58796   0.94470   0.37474   0.101893  
         H         H         0.90078   0.44046   0.47686   0.105274  
         H         H         0.39889   0.94155   0.47026   0.105435  
         H         H         0.08657   0.55678   0.40048   0.101243  
         H         H         0.58888   0.05538   0.38887   0.100626  
         H         H         0.84707   0.59653   0.51608   0.103412  
         H         H         0.34844   0.09723   0.50741   0.103390  
         H         H         0.14031   0.41005   0.36520   0.106077  
         H         H         0.63918   0.90923   0.35739   0.106151  
         H         H         0.84977   0.40399   0.49470   0.103553  
         H         H         0.34804   0.90512   0.48615   0.103133  
         H         H         0.13799   0.59184   0.38358   0.104981  
         H         H         0.64064   0.09009   0.37101   0.104741  
         H         H         0.92217   0.66556   0.12875   0.115802  
         H         H         0.42369   0.16516   0.11423   0.114660  
         H         H         0.09920   0.32963   0.15922   0.115720  
         H         H         0.59877   0.82927   0.14456   0.115872  
         H         H         0.92616   0.33806   0.10385   0.116316  
         H         H         0.42479   0.83830   0.10335   0.116300  
         H         H         0.10119   0.67186   0.14375   0.117663  
         H         H         0.60248   0.17153   0.14721   0.116452  
         H         H         0.97445   0.63021   0.11465   0.107793  
         H         H         0.47605   0.13024   0.10556   0.107943  
         H         H         0.04947   0.36588   0.16084   0.108364  
         H         H         0.54916   0.86573   0.14576   0.108444  
         H         H         0.97776   0.37443   0.08859   0.107257  
         H         H         0.47620   0.87492   0.08677   0.105867  
         H         H         0.05101   0.63587   0.14848   0.108396  
         H         H         0.55212   0.13600   0.15115   0.108599  
         H         H         0.82284   0.64370   0.41023   0.061659  
         H         H         0.32462   0.14441   0.40510   0.060805  
         H         H         0.16812   0.35494   0.33230   0.065523  
         H         H         0.66683   0.85418   0.32555   0.065712  
         H         H         0.82666   0.35606   0.40504   0.060321  
         H         H         0.32512   0.85697   0.39366   0.058606  
         H         H         0.16622   0.64562   0.34709   0.064080  
         H         H         0.67000   0.14341   0.33169   0.064531  
         N         N         0.85567   0.68195   0.24307   -0.273802           
         N         N         0.35745   0.18221   0.23323   -0.273634           
         N         N         0.16094   0.31804   0.16953   -0.288135           
         N         N         0.65977   0.81704   0.16318   -0.289557           
         N         N         0.85943   0.31980   0.22705   -0.274330           
         N         N         0.35837   0.81966   0.22644   -0.272691           
         N         N         0.16061   0.68403   0.18263   -0.287443           
         N         N         0.66221   0.18341   0.18139   -0.290004           
         C         C         0.00204   0.58887   0.29653   -0.181682           
         C         C         0.50332   0.08891   0.29317   -0.181022           
         C         C         0.00366   0.41415   0.27808   -0.181807           
         C         C         0.50252   0.91424   0.27078   -0.181484           
         C         C         0.00579   0.48373   0.25321   0.002152  
         C         C         0.50542   0.98381   0.24750   0.001518  
         C         C         0.00526   0.51953   0.25887   0.002812  
         C         C         0.50555   0.01961   0.25316   0.003332  
         H         H         -0.00027  0.61558   0.32139   0.105156  
         H         H         0.50111   0.11554   0.32025   0.105476  
         H         H         0.00110   0.38731   0.30149   0.104088  
         H         H         0.49988   0.88737   0.29256   0.103801  
         C         C         0.18923   0.29860   0.17543   0.166596  
         C         C         0.18655   0.26363   0.17257   -0.116749           
         C         C         0.21372   0.24406   0.18652   -0.143538           
         C         C         0.24362   0.25958   0.20064   0.155008  
         N         N         0.24772   0.29323   0.19112   -0.283514           
         C         C         0.22145   0.31181   0.17778   -0.000047           
         H         H         0.16287   0.25279   0.16151   0.123879  
         H         H         0.21266   0.21693   0.18690   0.121100  
         H         H         0.22626   0.33873   0.16322   0.085805  
         C         C         0.68802   0.79744   0.16857   0.163711  
         C         C         0.68610   0.76249   0.15737   -0.115996           
         C         C         0.71351   0.74267   0.16767   -0.147310           
         C         C         0.74290   0.75797   0.18766   0.156050  
         N         N         0.74618   0.79166   0.18718   -0.283274           
         C         C         0.71981   0.81045   0.17660   0.007306  
         H         H         0.66284   0.75166   0.14224   0.122642  
         H         H         0.71304   0.71559   0.16068   0.121993  
         H         H         0.72419   0.83743   0.16909   0.085216  
         C         C         0.82662   0.70051   0.24080   0.164342  
         C         C         0.82790   0.73560   0.24778   -0.118278           
         C         C         0.80026   0.75451   0.23453   -0.143149           
         C         C         0.77198   0.73827   0.20844   0.157156  
         N         N         0.77041   0.70455   0.20075   -0.289925           
         C         C         0.79672   0.68655   0.21837   -0.008460           
         H         H         0.85040   0.74710   0.26689   0.124371  
         H         H         0.79975   0.78165   0.24218   0.124051  
         H         H         0.79511   0.65947   0.20781   0.075943  
         C         C         0.32813   0.20127   0.23832   0.161736  
         C         C         0.33039   0.23632   0.24202   -0.119662           
         C         C         0.30233   0.25560   0.23577   -0.143316           
         C         C         0.27270   0.23976   0.22016   0.156012  
         N         N         0.27004   0.20606   0.21763   -0.285794           
         C         C         0.29681   0.18773   0.22797   -0.004840           
         H         H         0.35404   0.24757   0.25145   0.125560  
         H         H         0.30268   0.28274   0.23998   0.123698  
         H         H         0.29434   0.16067   0.22151   0.075169  
         C         C         0.18850   0.70326   0.19284   0.163392  
         C         C         0.18749   0.73813   0.17095   -0.115562           
         C         C         0.21488   0.75789   0.17992   -0.147406           
         C         C         0.24329   0.74255   0.21001   0.155938  
         N         N         0.24543   0.70890   0.22380   -0.285284           
         C         C         0.21902   0.69019   0.21450   0.006760  
         H         H         0.16503   0.74885   0.14711   0.123601  
         H         H         0.21533   0.78490   0.16242   0.122204  
         H         H         0.22243   0.66318   0.21990   0.085041  
         C         C         0.69044   0.20275   0.18802   0.162898  
         C         C         0.68957   0.23754   0.16243   -0.112920           
         C         C         0.71698   0.25755   0.16972   -0.148075           
         C         C         0.74525   0.24261   0.20246   0.156828  
         N         N         0.74751   0.20898   0.21762   -0.284830           
         C         C         0.72114   0.19005   0.20948   0.006724  
         H         H         0.66722   0.24804   0.13696   0.123481  
         H         H         0.71743   0.28446   0.14918   0.122294  
         H         H         0.72471   0.16311   0.21648   0.084969  
         C         C         0.83000   0.30081   0.23440   0.161522  
         C         C         0.83182   0.26575   0.24350   -0.120030           
         C         C         0.80363   0.24666   0.23907   -0.142055           
         C         C         0.77449   0.26263   0.21783   0.155895  
         N         N         0.77240   0.29635   0.20831   -0.288296           
         C         C         0.79909   0.31455   0.21917   -0.009196           
         H         H         0.85523   0.25444   0.25607   0.125262  
         H         H         0.80340   0.21951   0.24900   0.123147  
         H         H         0.79700   0.34168   0.20921   0.077022  
         C         C         0.32897   0.80056   0.23381   0.160158  
         C         C         0.33017   0.76556   0.24936   -0.119580           
         C         C         0.30177   0.74649   0.24696   -0.143099           
         C         C         0.27285   0.76238   0.22330   0.157382  
         N         N         0.27134   0.79604   0.20810   -0.288557           
         C         C         0.29841   0.81421   0.21493   -0.009320           
         H         H         0.35317   0.75423   0.26581   0.125427  
         H         H         0.30125   0.71940   0.26079   0.123429  
         H         H         0.29689   0.84122   0.19816   0.076453  
         C         C         0.96082   0.46363   0.75376   0.034260  
         C         C         0.46160   0.96364   0.74917   0.034286  
         C         C         0.02474   0.53405   0.74000   0.035351  
         C         C         0.52431   0.03531   0.73667   0.035189  
         C         C         0.96124   0.53507   0.76248   0.034309  
         C         C         0.46060   0.03539   0.76234   0.032016  
         C         C         0.02417   0.46239   0.73214   0.034957  
         C         C         0.52509   0.96362   0.72649   0.036535  
         C         C         0.93249   0.51713   0.74376   -0.136009           
         C         C         0.43221   0.01691   0.74301   -0.134472           
         C         C         0.05711   0.48082   0.68910   -0.134314           
         C         C         0.55769   0.98265   0.68260   -0.134503           
         C         C         0.93231   0.48296   0.73945   -0.137144           
         C         C         0.43277   0.98271   0.73607   -0.135603           
         C         C         0.05739   0.51492   0.69248   -0.134130           
         C         C         0.55732   0.01674   0.68803   -0.133799           
         C         C         0.96049   0.57033   0.78492   0.020986  
         C         C         0.45940   0.07071   0.78502   0.022258  
         C         C         0.02206   0.42692   0.75118   0.020423  
         C         C         0.52378   0.92809   0.74515   0.021417  
         C         C         0.95966   0.42812   0.76695   0.021005  
         C         C         0.46129   0.92801   0.75982   0.022500  
         C         C         0.02314   0.56923   0.76754   0.023867  
         C         C         0.52246   0.07056   0.76213   0.024550  
         C         C         0.92933   0.59179   0.80194   0.078114  
         C         C         0.42783   0.09184   0.80419   0.078426  
         C         C         0.05179   0.40590   0.75458   0.075132  
         C         C         0.55408   0.90785   0.74964   0.072214  
         C         C         0.92833   0.40750   0.78076   0.080226  
         C         C         0.43033   0.90678   0.77250   0.078255  
         C         C         0.05357   0.58902   0.77152   0.072782  
         C         C         0.55286   0.09083   0.76374   0.074875  
         C         C         0.89260   0.58380   0.91428   -0.135560           
         C         C         0.39132   0.08353   0.91888   -0.136745           
         C         C         0.07633   0.41719   0.82394   -0.143687           
         C         C         0.57874   0.92025   0.81588   -0.142902           
         C         C         0.89172   0.41513   0.89499   -0.135462           
         C         C         0.39350   0.91424   0.88432   -0.136379           
         C         C         0.07866   0.57595   0.83457   -0.140983           
         C         C         0.57773   0.07852   0.83020   -0.142702           
         C         C         0.86437   0.60507   0.92354   -0.134776           
         C         C         0.36256   0.10400   0.92721   -0.134757           
         C         C         0.10485   0.39708   0.82018   -0.121952           
         C         C         0.60802   0.90112   0.81129   -0.123766           
         C         C         0.86340   0.39414   0.90456   -0.133918           
         C         C         0.36543   0.89307   0.89249   -0.132625           
         C         C         0.10799   0.59494   0.82851   -0.125801           
         C         C         0.60660   0.09813   0.82522   -0.124667           
         C         C         0.87183   0.63516   0.82257   0.056521  
         C         C         0.36936   0.13370   0.82346   0.055589  
         C         C         0.10966   0.36469   0.74879   0.045227  
         C         C         0.61365   0.86850   0.74256   0.045988  
         C         C         0.87073   0.36480   0.80204   0.055615  
         C         C         0.37306   0.86345   0.79217   0.056551  
         C         C         0.11330   0.62798   0.76063   0.046838  
         C         C         0.61177   0.13094   0.75399   0.046403  
         C         C         0.90861   0.64380   0.71528   -0.091915           
         C         C         0.40590   0.14289   0.71505   -0.091372           
         C         C         0.08443   0.35276   0.68530   -0.107572           
         C         C         0.58835   0.85541   0.68268   -0.108500           
         C         C         0.90738   0.35673   0.69053   -0.090618           
         C         C         0.40988   0.85541   0.68390   -0.093325           
         C         C         0.08771   0.64161   0.70268   -0.108445           
         C         C         0.58648   0.14377   0.69182   -0.107568           
         C         C         0.93653   0.62253   0.70568   -0.130202           
         C         C         0.43434   0.12239   0.70639   -0.129226           
         C         C         0.05620   0.37293   0.68804   -0.137262           
         C         C         0.55933   0.87462   0.68623   -0.130770           
         C         C         0.93541   0.37769   0.68080   -0.130453           
         C         C         0.43771   0.87668   0.67449   -0.129481           
         C         C         0.05856   0.62258   0.70841   -0.130030           
         C         C         0.55770   0.12419   0.69728   -0.134060           
         C         C         0.84221   0.65665   0.82550   0.063032  
         C         C         0.33931   0.15451   0.82653   0.062362  
         C         C         0.13918   0.34387   0.75100   0.063827  
         C         C         0.64380   0.84853   0.74519   0.065772  
         C         C         0.84097   0.34320   0.81051   0.062662  
         C         C         0.34335   0.84166   0.80131   0.061529  
         C         C         0.14345   0.64770   0.76233   0.064137  
         C         C         0.64147   0.15124   0.75694   0.063725  
         H         H         0.91063   0.53117   0.73038   0.104644  
         H         H         0.40995   0.03051   0.73099   0.103987  
         H         H         0.08268   0.46737   0.65006   0.108939  
         H         H         0.58361   0.96967   0.64022   0.108971  
         H         H         0.91046   0.46994   0.72192   0.105274  
         H         H         0.41114   0.96952   0.71744   0.104782  
         H         H         0.08322   0.52784   0.65544   0.109414  
         H         H         0.58290   0.03011   0.65110   0.108904  
         H         H         0.88639   0.56106   -0.00316  0.108825  
         H         H         0.38569   0.06113   0.00380   0.109000  
         H         H         0.07219   0.44148   0.88723   0.104055  
         H         H         0.57415   0.94471   0.87747   0.103319  
         H         H         0.88572   0.43717   0.97949   0.109653  
         H         H         0.38704   0.93633   0.96856   0.109571  
         H         H         0.07442   0.55105   0.89460   0.101381  
         H         H         0.57367   0.05377   0.89218   0.101746  
         H         H         0.83615   0.59834   0.01105   0.103514  
         H         H         0.33444   0.09700   0.01516   0.103356  
         H         H         0.12329   0.40627   0.87599   0.105744  
         H         H         0.62649   0.91123   0.86470   0.105208  
         H         H         0.83521   0.40036   0.99381   0.103882  
         H         H         0.33710   0.89927   0.97951   0.103193  
         H         H         0.12670   0.58451   0.88087   0.104179  
         H         H         0.62508   0.08837   0.88076   0.104608  
         H         H         0.91437   0.66712   0.63764   0.116734  
         H         H         0.41099   0.16590   0.63517   0.116812  
         H         H         0.08798   0.32763   0.63116   0.115803  
         H         H         0.59253   0.83013   0.63008   0.114295  
         H         H         0.91290   0.33411   0.61069   0.115712  
         H         H         0.41576   0.83245   0.60668   0.116145  
         H         H         0.09177   0.66712   0.64966   0.115594  
         H         H         0.59042   0.16913   0.63658   0.116174  
         H         H         0.96476   0.62900   0.61812   0.106701  
         H         H         0.46238   0.12926   0.61753   0.106336  
         H         H         0.03819   0.36375   0.62986   0.108800  
         H         H         0.54138   0.86438   0.63030   0.105491  
         H         H         0.96359   0.37165   0.59128   0.105955  
         H         H         0.46598   0.87051   0.58716   0.106456  
         H         H         0.04028   0.63316   0.65412   0.106806  
         H         H         0.53959   0.13420   0.64057   0.106539  
         H         H         0.81415   0.64740   0.90298   0.065285  
         H         H         0.31139   0.14488   0.90458   0.063613  
         H         H         0.15217   0.35221   0.83838   0.067253  
         H         H         0.65643   0.85754   0.83288   0.067695  
         H         H         0.81295   0.35143   0.89650   0.064749  
         H         H         0.31536   0.85066   0.88161   0.065737  
         H         H         0.15762   0.63691   0.84029   0.065421  
         H         H         0.65489   0.14140   0.84056   0.066286  
         N         N         0.84878   0.68531   0.74221   -0.274051           
         N         N         0.34541   0.18308   0.74241   -0.272247           
         N         N         0.14873   0.31640   0.66052   -0.283832           
         N         N         0.65386   0.82102   0.65566   -0.284950           
         N         N         0.84736   0.31529   0.72437   -0.274127           
         N         N         0.34956   0.81293   0.72309   -0.273721           
         N         N         0.15188   0.67671   0.68266   -0.288527           
         N         N         0.65053   0.17970   0.67183   -0.285478           
         C         C         0.99092   0.58594   0.79040   -0.181083           
         C         C         0.48995   0.08683   0.78639   -0.182707           
         C         C         0.98983   0.41118   0.76849   -0.180359           
         C         C         0.49191   0.91171   0.76097   -0.181125           
         C         C         0.99260   0.48088   0.74542   0.003855  
         C         C         0.49303   0.98152   0.74155   0.002230  
         C         C         0.99284   0.51672   0.74965   0.002306  
         C         C         0.49260   0.01744   0.74746   0.005306  
         H         H         0.98893   0.61250   0.81826   0.103581  
         H         H         0.48786   0.11347   0.81217   0.104000  
         H         H         0.98750   0.38430   0.78992   0.103490  
         H         H         0.49033   0.88477   0.78071   0.103875  
         C         C         0.17727   0.29760   0.66823   0.155463  
         C         C         0.17647   0.26268   0.65420   -0.119144           
         C         C         0.20413   0.24361   0.66661   -0.146968           
         C         C         0.23248   0.25962   0.69270   0.155919  
         N         N         0.23469   0.29336   0.69572   -0.282576           
         C         C         0.20816   0.31146   0.68198   0.005878  
         H         H         0.15384   0.25132   0.63574   0.121868  
         H         H         0.20476   0.21657   0.65569   0.122434  
         H         H         0.21168   0.33853   0.67610   0.085008  
         C         C         0.68255   0.80229   0.66240   0.158607  
         C         C         0.68150   0.76736   0.64809   -0.118892           
         C         C         0.70933   0.74818   0.65761   -0.145758           
         C         C         0.73829   0.76397   0.67939   0.157621  
         N         N         0.74065   0.79768   0.68349   -0.284579           
         C         C         0.71370   0.81594   0.67451   0.003306  
         H         H         0.65854   0.75615   0.63175   0.122679  
         H         H         0.70961   0.72113   0.64806   0.121849  
         H         H         0.71710   0.84301   0.67210   0.084733  
         C         C         0.82076   0.70476   0.73463   0.166755  
         C         C         0.82269   0.73979   0.74349   -0.119175           
         C         C         0.79589   0.75948   0.72657   -0.143451           
         C         C         0.76748   0.74407   0.69807   0.155914  
         N         N         0.76545   0.71044   0.68764   -0.284627           
         C         C         0.79120   0.69173   0.70554   -0.008027           
         H         H         0.84489   0.75065   0.76781   0.126188  
         H         H         0.79611   0.78659   0.73476   0.124332  
         H         H         0.78931   0.66478   0.69117   0.075185  
         C         C         0.31669   0.20202   0.73919   0.163516  
         C         C         0.31776   0.23703   0.75105   -0.117205           
         C         C         0.28999   0.25618   0.74058   -0.141175           
         C         C         0.26176   0.24020   0.71288   0.154715  
         N         N         0.26039   0.20656   0.70113   -0.283428           
         C         C         0.28694   0.18837   0.71455   -0.013125           
         H         H         0.34020   0.24832   0.77151   0.125617  
         H         H         0.28948   0.28325   0.75223   0.124498  
         H         H         0.28561   0.16138   0.69936   0.077257  
         C         C         0.18046   0.69547   0.68908   0.153892  
         C         C         0.18075   0.73009   0.65625   -0.113644           
         C         C         0.20845   0.74970   0.66274   -0.149674           
         C         C         0.23574   0.73445   0.70223   0.160958  
         N         N         0.23680   0.70091   0.72558   -0.285760           
         C         C         0.21017   0.68233   0.71788   0.010017  
         H         H         0.15918   0.74077   0.62509   0.121251  
         H         H         0.21007   0.77648   0.63600   0.125844  
         H         H         0.21280   0.65538   0.73083   0.083302  
         C         C         0.67905   0.19852   0.67825   0.154784  
         C         C         0.67876   0.23332   0.65217   -0.116999           
         C         C         0.70644   0.25279   0.65974   -0.147283           
         C         C         0.73440   0.23725   0.69272   0.159105  
         N         N         0.73613   0.20360   0.70819   -0.282831           
         C         C         0.70947   0.18514   0.69984   0.006886  
         H         H         0.65666   0.24426   0.62634   0.122438  
         H         H         0.70750   0.27973   0.63918   0.123495  
         H         H         0.71256   0.15810   0.70546   0.083631  
         C         C         0.81863   0.29588   0.72648   0.165529  
         C         C         0.82060   0.26084   0.73748   -0.120261           
         C         C         0.79291   0.24143   0.72984   -0.141026           
         C         C         0.76377   0.25709   0.70729   0.153657  
         N         N         0.76156   0.29075   0.69637   -0.283189           
         C         C         0.78806   0.30924   0.70655   -0.011840           
         H         H         0.84361   0.24980   0.75513   0.126140  
         H         H         0.79305   0.21430   0.73963   0.123220  
         H         H         0.78587   0.33628   0.69347   0.079110  
         C         C         0.32072   0.79341   0.72679   0.162227  
         C         C         0.32222   0.75842   0.74373   -0.117794           
         C         C         0.29415   0.73892   0.74047   -0.141700           
         C         C         0.26525   0.75440   0.71483   0.153984  
         N         N         0.26361   0.78798   0.69679   -0.282269           
         C         C         0.29040   0.80655   0.70350   -0.007473           
         H         H         0.34524   0.74743   0.76162   0.125383  
         H         H         0.29394   0.71186   0.75528   0.123154  
         H         H         0.28876   0.83346   0.68378   0.077787 

