
##########################################################################
#               Crystallographic Information Format file
#               Produced by PyCifRW module
#
#  This is a CIF file.  CIF has been adopted by the International
#  Union of Crystallography as the standard for data archiving and
#  transmission.
#
#  For information on this file format, follow the CIF links at
#  http://www.iucr.org
##########################################################################

data_image0

_cell_length_a                          40.8865
_cell_length_b                          40.9419
_cell_length_c                          7.9806
_cell_angle_alpha                       100.924
_cell_angle_beta                        87.9631
_cell_angle_gamma                       119.921
_symmetry_space_group_name_H-M          'P 1'
_space_group_name_Hall                  'P 1'
loop_
  _atom_site_type_symbol
  _atom_site_label
  _atom_site_fract_x
  _atom_site_fract_y
  _atom_site_fract_z
  _atom_site_charge
         C         C         0.70302   0.33518   0.25469   0.031564  
         C         C         0.70254   0.36976   0.25302   0.031351  
         C         C         0.73678   0.40438   0.24727   -0.228080           
         C         C         0.73812   0.33587   0.24873   -0.230690           
         C         C         0.77001   0.40393   0.24828   0.171698  
         C         C         0.77067   0.37007   0.24679   0.174091  
         C         C         0.66780   0.29944   0.25939   0.030545  
         C         C         0.63253   0.29868   0.25580   0.032554  
         C         C         0.59815   0.26323   0.25253   -0.228031           
         C         C         0.66878   0.26561   0.26523   -0.225338           
         C         C         0.60043   0.23102   0.25745   0.174121  
         C         C         0.63521   0.23232   0.26537   0.173199  
         C         C         0.66668   0.36929   0.25372   0.030799  
         C         C         0.63215   0.33429   0.25764   0.031874  
         C         C         0.59760   0.33451   0.26318   -0.228266           
         C         C         0.66612   0.40377   0.25587   -0.229054           
         C         C         0.59833   0.36829   0.26149   0.171768  
         C         C         0.63198   0.40270   0.25881   0.176084  
         C         C         0.29637   0.66438   0.26362   0.031873  
         C         C         0.29839   0.63019   0.25184   0.031410  
         C         C         0.26456   0.59445   0.25388   -0.227766           
         C         C         0.26089   0.66244   0.27402   -0.227306           
         C         C         0.23062   0.59363   0.25812   0.170598  
         C         C         0.22891   0.62728   0.27007   0.174716  
         C         C         0.33074   0.70080   0.25765   0.033696  
         C         C         0.36639   0.70240   0.24292   0.029669  
         C         C         0.39961   0.73742   0.23097   -0.227752           
         C         C         0.32907   0.73494   0.26925   -0.232037           
         C         C         0.39681   0.76963   0.24049   0.173557  
         C         C         0.36212   0.76840   0.26073   0.177974  
         C         C         0.33500   0.63216   0.24469   0.033002  
         C         C         0.36868   0.66799   0.24218   0.030490  
         C         C         0.40460   0.67031   0.24032   -0.230158           
         C         C         0.33774   0.59890   0.23690   -0.226453           
         C         C         0.40575   0.63711   0.23007   0.174465  
         C         C         0.37270   0.60203   0.23194   0.172501  
         O         O         0.80772   0.37778   0.23928   -0.340834           
         O         O         0.62959   0.19642   0.27245   -0.336213           
         O         O         0.62371   0.43177   0.25942   -0.338952           
         O         O         0.80619   0.43383   0.23985   -0.334970           
         O         O         0.57157   0.19366   0.25682   -0.338586           
         O         O         0.56808   0.37453   0.26739   -0.336635           
         O         O         0.19170   0.61857   0.27885   -0.338225           
         O         O         0.36792   0.80498   0.26844   -0.343730           
         O         O         0.38206   0.57371   0.23219   -0.340559           
         O         O         0.19442   0.56252   0.25651   -0.337892           
         O         O         0.42514   0.80672   0.23708   -0.337221           
         O         O         0.43674   0.63191   0.22598   -0.338672           
         B         B         0.82915   0.41725   0.23507   0.578462  
         B         B         0.58403   0.41371   0.26582   0.581361  
         B         B         0.59004   0.17276   0.26585   0.579452  
         B         B         0.17075   0.57856   0.26945   0.584117  
         B         B         0.42158   0.59253   0.22439   0.580146  
         B         B         0.40712   0.82860   0.25671   0.582984  
         H         H         0.73770   0.43094   0.23308   0.134645  
         H         H         0.57073   0.26124   0.24960   0.135549  
         H         H         0.57060   0.30896   0.26846   0.134270  
         H         H         0.73982   0.31018   0.24186   0.132754  
         H         H         0.69509   0.26532   0.26966   0.134646  
         H         H         0.69206   0.43071   0.25948   0.132748  
         H         H         0.26496   0.56798   0.25581   0.133328  
         H         H         0.42690   0.73939   0.21171   0.134842  
         H         H         0.43070   0.69740   0.25238   0.133917  
         H         H         0.25769   0.68757   0.28014   0.133351  
         H         H         0.30276   0.73518   0.28622   0.135392  
         H         H         0.31296   0.57080   0.22968   0.132803  
         C         C         0.12763   0.55555   0.26648   -0.232096           
         C         C         0.10533   0.57105   0.22906   -0.041059           
         C         C         0.10955   0.51786   0.29499   -0.047066           
         C         C         0.06620   0.54902   0.21629   -0.146608           
         C         C         0.07031   0.49609   0.28783   -0.149258           
         C         C         0.04838   0.51141   0.24695   0.174495  
         N         N         0.00883   0.48672   0.24145   -0.136655           
         C         C         0.44495   0.57279   0.22647   -0.224990           
         C         C         0.56032   0.43315   0.26607   -0.229334           
         C         C         0.42598   0.53249   0.21212   -0.045384           
         C         C         0.48472   0.59362   0.24571   -0.045194           
         C         C         0.57695   0.47134   0.24031   -0.047532           
         C         C         0.52115   0.41301   0.28914   -0.045631           
         C         C         0.44550   0.51319   0.21871   -0.142097           
         C         C         0.50444   0.57431   0.25079   -0.146540           
         C         C         0.55496   0.48831   0.23108   -0.142227           
         C         C         0.49911   0.43016   0.28623   -0.150857           
         C         C         0.48520   0.53431   0.23963   0.174965  
         C         C         0.51590   0.46781   0.25538   0.171676  
         N         N         0.49141   0.48292   0.25364   -0.135892           
         N         N         0.50874   0.51858   0.24787   -0.132897           
         C         C         0.42776   0.87165   0.25316   -0.227060           
         C         C         0.40733   0.88902   0.21612   -0.052721           
         C         C         0.46771   0.89388   0.27893   -0.045007           
         C         C         0.42611   0.92775   0.20641   -0.141541           
         C         C         0.48656   0.93282   0.27347   -0.143397           
         C         C         0.46551   0.95001   0.24036   0.172038  
         N         N         0.48040   0.98913   0.23125   -0.133363           
         C         C         0.87204   0.43975   0.23203   -0.230792           
         C         C         0.89245   0.41996   0.22010   -0.042217           
         C         C         0.89161   0.48012   0.24420   -0.046306           
         C         C         0.93133   0.43954   0.21744   -0.143853           
         C         C         0.93082   0.50014   0.24244   -0.146111           
         C         C         0.95053   0.47982   0.22912   0.176140  
         N         N         0.98999   0.50348   0.23069   -0.134817           
         C         C         0.56992   0.12954   0.26362   -0.229258           
         C         C         0.59004   0.11045   0.28163   -0.047406           
         C         C         0.52994   0.10761   0.24843   -0.042461           
         C         C         0.57086   0.07127   0.28261   -0.146679           
         C         C         0.51067   0.06834   0.24818   -0.146191           
         C         C         0.53118   0.04950   0.26344   0.172934  
         N         N         0.51603   0.00998   0.26688   -0.134966           
         H         H         0.11893   0.60073   0.21191   0.108005  
         H         H         0.12635   0.50562   0.32538   0.106492  
         H         H         0.04878   0.56020   0.18220   0.111734  
         H         H         0.05568   0.46706   0.31142   0.115806  
         H         H         0.37673   0.87132   0.19393   0.109199  
         H         H         0.48337   0.87992   0.30409   0.109040  
         H         H         0.41092   0.94148   0.17243   0.115892  
         H         H         0.51724   0.95024   0.29274   0.115146  
         H         H         0.39533   0.51653   0.19116   0.106495  
         H         H         0.49988   0.62476   0.25617   0.108683  
         H         H         0.60729   0.48755   0.22757   0.108746  
         H         H         0.50794   0.38370   0.31006   0.107146  
         H         H         0.43148   0.48214   0.20684   0.113202  
         H         H         0.53518   0.58921   0.26355   0.113565  
         H         H         0.56717   0.51739   0.20637   0.110698  
         H         H         0.46899   0.41540   0.31110   0.118233  
         H         H         0.87647   0.38864   0.20731   0.108357  
         H         H         0.87601   0.49544   0.25472   0.110227  
         H         H         0.94770   0.42476   0.20214   0.114074  
         H         H         0.94748   0.53132   0.25442   0.117965  
         H         H         0.62090   0.12651   0.29613   0.107508  
         H         H         0.51406   0.12224   0.24044   0.108388  
         H         H         0.58588   0.05601   0.29549   0.113846  
         H         H         0.48001   0.05194   0.24300   0.113955  
         C         C         0.70277   0.33432   0.75698   0.030381  
         C         C         0.70054   0.36764   0.74439   0.031076  
         C         C         0.73389   0.40257   0.73303   -0.229826           
         C         C         0.73860   0.33630   0.75601   -0.229298           
         C         C         0.76774   0.40352   0.73915   0.173415  
         C         C         0.77052   0.37096   0.74651   0.173853  
         C         C         0.66764   0.29838   0.76212   0.031760  
         C         C         0.63168   0.29604   0.74297   0.031739  
         C         C         0.59776   0.25998   0.72868   -0.227122           
         C         C         0.66880   0.26496   0.77798   -0.229399           
         C         C         0.60024   0.22806   0.73848   0.172947  
         C         C         0.63519   0.23100   0.76758   0.173357  
         C         C         0.66428   0.36635   0.74427   0.031557  
         C         C         0.62988   0.33084   0.74252   0.030903  
         C         C         0.59470   0.33015   0.74290   -0.229123           
         C         C         0.66341   0.40067   0.74641   -0.224206           
         C         C         0.59511   0.36394   0.74254   0.173887  
         C         C         0.62886   0.39860   0.74201   0.172141  
         C         C         0.29722   0.66555   0.77095   0.033589  
         C         C         0.29887   0.63108   0.74780   0.033387  
         C         C         0.26496   0.59501   0.72513   -0.227983           
         C         C         0.26149   0.66335   0.78120   -0.229067           
         C         C         0.23106   0.59422   0.74355   0.174892  
         C         C         0.22947   0.62809   0.77202   0.173148  
         C         C         0.33174   0.70216   0.77155   0.030165  
         C         C         0.36705   0.70317   0.74477   0.031270  
         C         C         0.39972   0.73806   0.72549   -0.228478           
         C         C         0.32987   0.73633   0.78658   -0.226381           
         C         C         0.39668   0.77036   0.74260   0.174440  
         C         C         0.36252   0.76984   0.77621   0.171348  
         C         C         0.33552   0.63308   0.74717   0.032129  
         C         C         0.36930   0.66861   0.74157   0.031324  
         C         C         0.40478   0.67013   0.73540   -0.229304           
         C         C         0.33752   0.59973   0.75097   -0.229875           
         C         C         0.40530   0.63679   0.73048   0.173542  
         C         C         0.37226   0.60225   0.74182   0.174522  
         O         O         0.80842   0.38143   0.74725   -0.340084           
         O         O         0.62973   0.19552   0.78335   -0.340636           
         O         O         0.62048   0.42740   0.73716   -0.337626           
         O         O         0.80302   0.43487   0.73522   -0.333275           
         O         O         0.57165   0.19026   0.73123   -0.339874           
         O         O         0.56481   0.37032   0.74638   -0.338841           
         O         O         0.19210   0.61937   0.78011   -0.338487           
         O         O         0.36811   0.80659   0.78849   -0.339667           
         O         O         0.38108   0.57380   0.74203   -0.337472           
         O         O         0.19469   0.56308   0.73394   -0.338805           
         O         O         0.42457   0.80729   0.73279   -0.338112           
         O         O         0.43583   0.63075   0.72042   -0.339474           
         B         B         0.82820   0.42113   0.74230   0.580020  
         B         B         0.58089   0.40958   0.74086   0.580003  
         B         B         0.59031   0.17047   0.76064   0.578598  
         B         B         0.17105   0.57909   0.75836   0.580090  
         B         B         0.42044   0.59171   0.72775   0.580671  
         B         B         0.40657   0.82917   0.75974   0.583782  
         H         H         0.73383   0.42843   0.71688   0.135739  
         H         H         0.57022   0.25692   0.70676   0.134869  
         H         H         0.56777   0.30411   0.74531   0.134847  
         H         H         0.74085   0.31098   0.75973   0.134452  
         H         H         0.69487   0.26553   0.80713   0.136072  
         H         H         0.68910   0.42804   0.74985   0.133792  
         H         H         0.26561   0.56850   0.69220   0.133310  
         H         H         0.42659   0.73989   0.69358   0.135730  
         H         H         0.43122   0.69653   0.73100   0.135432  
         H         H         0.25811   0.68832   0.78752   0.133225  
         H         H         0.30340   0.73648   0.80303   0.134864  
         H         H         0.31275   0.57250   0.75948   0.135781  
         C         C         0.12787   0.55554   0.75822   -0.228422           
         C         C         0.10597   0.57346   0.75608   -0.040415           
         C         C         0.10829   0.51565   0.75645   -0.045221           
         C         C         0.06690   0.55316   0.75261   -0.147002           
         C         C         0.06897   0.49454   0.74457   -0.150216           
         C         C         0.04781   0.51311   0.74325   0.174961  
         N         N         0.00810   0.48960   0.73433   -0.134167           
         C         C         0.44342   0.57140   0.72765   -0.225985           
         C         C         0.55783   0.42994   0.74227   -0.228976           
         C         C         0.42551   0.53134   0.72074   -0.041421           
         C         C         0.48324   0.59316   0.74519   -0.049580           
         C         C         0.57562   0.46930   0.73218   -0.042441           
         C         C         0.51832   0.41004   0.75819   -0.046733           
         C         C         0.44663   0.51366   0.72787   -0.143643           
         C         C         0.50461   0.57568   0.75825   -0.146499           
         C         C         0.55523   0.48808   0.73403   -0.144298           
         C         C         0.49757   0.42876   0.76394   -0.149774           
         C         C         0.48641   0.53579   0.74810   0.174527  
         C         C         0.51594   0.46789   0.75139   0.173464  
         N         N         0.49256   0.48419   0.75294   -0.134586           
         N         N         0.51041   0.52045   0.75809   -0.133545           
         C         C         0.42726   0.87214   0.75635   -0.228058           
         C         C         0.40762   0.89127   0.73385   -0.049980           
         C         C         0.46729   0.89325   0.77377   -0.044621           
         C         C         0.42728   0.93001   0.72416   -0.146906           
         C         C         0.48729   0.93218   0.76903   -0.147625           
         C         C         0.46703   0.95054   0.74323   0.173704  
         N         N         0.48361   0.98961   0.73372   -0.128786           
         C         C         0.87141   0.44541   0.74602   -0.228342           
         C         C         0.89246   0.42678   0.74783   -0.041001           
         C         C         0.89108   0.48483   0.74122   -0.046732           
         C         C         0.93137   0.44614   0.74073   -0.142789           
         C         C         0.93031   0.50450   0.73227   -0.147487           
         C         C         0.95073   0.48528   0.73142   0.173114  
         N         N         0.99045   0.50796   0.73090   -0.132440           
         C         C         0.57079   0.12747   0.76681   -0.226103           
         C         C         0.59130   0.11111   0.81567   -0.049817           
         C         C         0.53165   0.10367   0.71998   -0.043067           
         C         C         0.57323   0.07225   0.82208   -0.146241           
         C         C         0.51326   0.06474   0.72333   -0.145996           
         C         C         0.53426   0.04900   0.77469   0.172729  
         N         N         0.51854   0.00996   0.78407   -0.134259           
         H         H         0.12022   0.60438   0.75539   0.105196  
         H         H         0.12423   0.50097   0.76404   0.106597  
         H         H         0.04995   0.56686   0.75613   0.112614  
         H         H         0.05396   0.46370   0.73750   0.117561  
         H         H         0.37685   0.87534   0.72157   0.107893  
         H         H         0.48240   0.87855   0.79346   0.106845  
         H         H         0.41296   0.94547   0.70147   0.117005  
         H         H         0.51805   0.94909   0.78599   0.115795  
         H         H         0.39458   0.51402   0.70846   0.107288  
         H         H         0.49725   0.62404   0.75051   0.108012  
         H         H         0.60602   0.48514   0.71902   0.107143  
         H         H         0.50404   0.37969   0.76450   0.108642  
         H         H         0.43381   0.48285   0.71855   0.110180  
         H         H         0.53526   0.59209   0.77783   0.116415  
         H         H         0.56841   0.51829   0.72299   0.114190  
         H         H         0.46703   0.41362   0.77642   0.118461  
         H         H         0.87737   0.39660   0.75831   0.105788  
         H         H         0.87558   0.50003   0.74533   0.107906  
         H         H         0.94792   0.43216   0.74492   0.111133  
         H         H         0.94595   0.53486   0.72629   0.115288  
         H         H         0.62154   0.12914   0.85232   0.107779  
         H         H         0.51591   0.11611   0.67849   0.107552  
         H         H         0.58834   0.05918   0.86395   0.116934  
         H         H         0.48348   0.04611   0.68387   0.114691 

