
##########################################################################
#               Crystallographic Information Format file
#               Produced by PyCifRW module
#
#  This is a CIF file.  CIF has been adopted by the International
#  Union of Crystallography as the standard for data archiving and
#  transmission.
#
#  For information on this file format, follow the CIF links at
#  http://www.iucr.org
##########################################################################

data_image0

_cell_length_a                          33.4249
_cell_length_b                          33.3429
_cell_length_c                          8.02881
_cell_angle_alpha                       64.861
_cell_angle_beta                        121.903
_cell_angle_gamma                       119.827
_symmetry_space_group_name_H-M          'P 1'
_space_group_name_Hall                  'P 1'
loop_
  _atom_site_type_symbol
  _atom_site_label
  _atom_site_fract_x
  _atom_site_fract_y
  _atom_site_fract_z
  _atom_site_charge
         O         O         0.30530   0.57469   0.98982   -0.472949           
         N         N         0.38940   0.59828   0.97093   -0.229094           
         C         C         0.31769   0.61738   0.99039   0.354410  
         C         C         0.39943   0.64177   0.97851   0.114222  
         C         C         0.42071   0.58214   0.97108   0.221294  
         C         C         0.46789   0.61183   0.96239   -0.188303           
         C         C         0.49738   0.59236   0.97028   -0.127698           
         C         C         0.48046   0.54355   0.98374   0.154002  
         C         C         0.43275   0.51417   0.98941   -0.122434           
         C         C         0.40339   0.53326   0.98286   -0.165856           
         C         C         0.36581   0.65307   0.98707   -0.246605           
         H         H         0.43507   0.66967   0.97801   0.104822  
         H         H         0.48142   0.64967   0.95039   0.124640  
         H         H         0.35410   0.57503   0.97483   0.271919  
         H         H         0.36683   0.51083   0.99006   0.128920  
         H         H         0.53407   0.61458   0.96431   0.117607  
         H         H         0.42013   0.47651   0.00039   0.116014  
         O         O         0.42457   0.73166   0.00155   -0.470885           
         N         N         0.40362   0.79446   0.01723   -0.224124           
         C         C         0.38145   0.70168   -0.00306  0.348677  
         C         C         0.35914   0.76032   0.01163   0.117622  
         C         C         0.42045   0.84173   0.02142   0.211531  
         C         C         0.39100   0.86121   0.01723   -0.194402           
         C         C         0.40972   0.90920   0.01299   -0.124929           
         C         C         0.45782   0.93866   0.01270   0.149437  
         C         C         0.48739   0.91879   0.01907   -0.124146           
         C         C         0.46897   0.87106   0.02365   -0.171973           
         C         C         0.34650   0.71467   0.00130   -0.239146           
         H         H         0.33164   0.76800   0.01584   0.101886  
         H         H         0.35378   0.83908   0.01752   0.123206  
         H         H         0.42614   0.78126   0.01546   0.271240  
         H         H         0.49127   0.85576   0.02451   0.127183  
         H         H         0.38763   0.92490   0.01085   0.118835  
         H         H         0.52420   0.94197   0.01631   0.118922  
         O         O         0.26737   0.69270   0.00317   -0.469997           
         N         N         0.20471   0.60636   0.00797   -0.234282           
         C         C         0.29724   0.68041   -0.00051  0.356823  
         C         C         0.23847   0.59725   0.00092   0.125140  
         C         C         0.15732   0.57516   0.00681   0.209909  
         C         C         0.13766   0.52756   -0.00397  -0.186329           
         C         C         0.08929   0.49923   0.98776   -0.120795           
         C         C         0.05968   0.51737   0.99058   0.148740  
         C         C         0.07982   0.56504   0.00331   -0.124132           
         C         C         0.12797   0.59342   0.01151   -0.174266           
         C         C         0.28402   0.63199   -0.00362  -0.242242           
         H         H         0.23044   0.56156   -0.00133  0.104167  
         H         H         0.15943   0.51311   0.98901   0.122674  
         H         H         0.21795   0.64219   0.01035   0.270300  
         H         H         0.14402   0.63011   0.02340   0.128434  
         H         H         0.07307   0.46254   0.97587   0.121279  
         H         H         0.05700   0.57849   0.00912   0.116902  
         O         O         0.69895   0.42634   0.00446   -0.473575           
         N         N         0.61568   0.40767   0.02123   -0.229402           
         C         C         0.68445   0.38307   0.00549   0.357425  
         C         C         0.60382   0.36333   0.01673   0.115498  
         C         C         0.58558   0.42564   0.01920   0.222036  
         C         C         0.53908   0.39686   0.03516   -0.185533           
         C         C         0.51049   0.41746   0.02590   -0.124819           
         C         C         0.52753   0.46672   0.00324   0.154807  
         C         C         0.57440   0.49538   0.98877   -0.126304           
         C         C         0.60301   0.47504   -0.00274  -0.165130           
         C         C         0.63575   0.34940   0.01022   -0.250072           
         H         H         0.56761   0.33681   0.01738   0.102059  
         H         H         0.52546   0.35869   0.05501   0.123094  
         H         H         0.65107   0.42959   0.01666   0.274237  
         H         H         0.63888   0.49682   0.98318   0.127669  
         H         H         0.47448   0.39592   0.03868   0.117801  
         H         H         0.58705   0.53343   0.96941   0.116811  
         O         O         0.57382   0.27192   -0.00369  -0.474478           
         N         N         0.59103   0.20507   0.99023   -0.224307           
         C         C         0.61755   0.30007   0.00231   0.349380  
         C         C         0.63605   0.23776   0.99478   0.119210  
         C         C         0.57293   0.15729   0.99025   0.210896  
         C         C         0.60186   0.13603   0.00212   -0.195400           
         C         C         0.58189   0.08784   0.00845   -0.118226           
         C         C         0.53316   0.05985   0.00404   0.145301  
         C         C         0.50410   0.08147   0.99009   -0.124089           
         C         C         0.52374   0.12953   0.98284   -0.173249           
         C         C         0.65078   0.28426   0.00091   -0.236290           
         H         H         0.66245   0.22804   0.99309   0.101601  
         H         H         0.63961   0.15683   0.00603   0.125781  
         H         H         0.56944   0.21990   0.98855   0.273108  
         H         H         0.50180   0.14646   0.97415   0.126920  
         H         H         0.60340   0.07064   0.01603   0.119379  
         H         H         0.46660   0.05957   0.98772   0.121358  
         O         O         0.72852   0.30164   -0.00172  -0.472229           
         N         N         0.79399   0.38719   0.98326   -0.235628           
         C         C         0.70044   0.31644   0.00061   0.355758  
         C         C         0.76196   0.39863   0.99160   0.123534  
         C         C         0.84115   0.41700   0.97789   0.209244  
         C         C         0.86233   0.46496   0.98597   -0.186716           
         C         C         0.91036   0.49208   0.98918   -0.120694           
         C         C         0.93831   0.47246   0.98392   0.147324  
         C         C         0.91667   0.42448   0.97295   -0.124544           
         C         C         0.86873   0.39723   0.96989   -0.174848           
         C         C         0.71609   0.36574   -0.00011  -0.242897           
         H         H         0.77177   0.43504   0.99130   0.103455  
         H         H         0.84215   0.48074   0.99547   0.125251  
         H         H         0.77940   0.35104   0.98368   0.277497  
         H         H         0.85155   0.36027   0.95987   0.129325  
         H         H         0.92782   0.52900   -0.00055  0.121864  
         H         H         0.93801   0.40980   0.96443   0.117602  
         N         N         0.51318   0.52768   0.99002   -0.154835           
         N         N         0.47279   0.98676   0.00514   -0.149362           
         N         N         0.01173   0.48536   0.98571   -0.150107           
         N         N         0.49533   0.48315   -0.00316  -0.150642           
         N         N         0.51760   0.01164   0.01301   -0.145201           
         N         N         0.98616   0.50381   0.98695   -0.146170           
         O         O         0.30300   0.57402   0.49036   -0.474318           
         N         N         0.38673   0.59487   0.47295   -0.233014           
         C         C         0.31669   0.61705   0.49040   0.357546  
         C         C         0.39798   0.63883   0.47979   0.116500  
         C         C         0.41698   0.57756   0.47233   0.222493  
         C         C         0.46424   0.60649   0.46332   -0.185225           
         C         C         0.49282   0.58628   0.46984   -0.124964           
         C         C         0.47510   0.53734   0.48351   0.152833  
         C         C         0.42743   0.50858   0.49058   -0.124238           
         C         C         0.39877   0.52852   0.48404   -0.164604           
         C         C         0.36528   0.65157   0.48742   -0.248588           
         H         H         0.43404   0.66592   0.48003   0.103137  
         H         H         0.47858   0.64438   0.45215   0.123832  
         H         H         0.35131   0.57249   0.47694   0.273357  
         H         H         0.36210   0.50669   0.49103   0.127822  
         H         H         0.52945   0.60787   0.46268   0.118052  
         H         H         0.41417   0.47079   0.50211   0.116090  
         O         O         0.42627   0.72930   0.50596   -0.472833           
         N         N         0.40764   0.79440   0.51621   -0.222385           
         C         C         0.38255   0.70047   0.49825   0.348259  
         C         C         0.36292   0.76112   0.51215   0.118922  
         C         C         0.42571   0.84177   0.52205   0.209825  
         C         C         0.39768   0.86176   0.52450   -0.193077           
         C         C         0.41742   0.90972   0.52209   -0.121402           
         C         C         0.46508   0.93870   0.51663   0.146111  
         C         C         0.49338   0.91831   0.51738   -0.124807           
         C         C         0.47397   0.87051   0.52048   -0.172556           
         C         C         0.34866   0.71506   0.50159   -0.240879           
         H         H         0.33643   0.76995   0.51779   0.101747  
         H         H         0.36088   0.84008   0.52954   0.123811  
         H         H         0.42938   0.78025   0.51460   0.272122  
         H         H         0.49521   0.85464   0.51762   0.126130  
         H         H         0.39654   0.92584   0.52564   0.118420  
         H         H         0.53003   0.94105   0.51194   0.121064  
         O         O         0.27039   0.69544   0.50571   -0.471203           
         N         N         0.20523   0.61016   0.50690   -0.228635           
         C         C         0.29909   0.68197   0.50031   0.359011  
         C         C         0.23800   0.59972   0.49887   0.122723  
         C         C         0.15751   0.58005   0.50509   0.208671  
         C         C         0.13641   0.53265   0.48959   -0.189432           
         C         C         0.08796   0.50521   0.48143   -0.121101           
         C         C         0.05953   0.52398   0.48853   0.146503  
         C         C         0.08098   0.57148   0.50539   -0.123552           
         C         C         0.12930   0.59900   0.51361   -0.174750           
         C         C         0.28414   0.63322   0.49593   -0.242974           
         H         H         0.22866   0.56380   0.49466   0.102910  
         H         H         0.15704   0.51767   0.47829   0.125769  
         H         H         0.21979   0.64597   0.51209   0.270849  
         H         H         0.14626   0.63558   0.52814   0.128872  
         H         H         0.07057   0.46873   0.46564   0.124052  
         H         H         0.05909   0.58541   0.51461   0.114160  
         O         O         0.69665   0.42585   0.50630   -0.473628           
         N         N         0.61286   0.40418   0.52357   -0.229066           
         C         C         0.68346   0.38290   0.50648   0.355022  
         C         C         0.60223   0.36024   0.51900   0.112382  
         C         C         0.58189   0.42112   0.52097   0.218510  
         C         C         0.53540   0.39157   0.53612   -0.187294           
         C         C         0.50594   0.41147   0.52536   -0.126807           
         C         C         0.52223   0.46062   0.50272   0.151138  
         C         C         0.56919   0.48997   0.48985   -0.120348           
         C         C         0.59857   0.47040   0.49942   -0.164788           
         C         C         0.63526   0.34791   0.51163   -0.247256           
         H         H         0.56648   0.33275   0.52043   0.104604  
         H         H         0.52251   0.35345   0.55642   0.123797  
         H         H         0.64809   0.42691   0.51802   0.274336  
         H         H         0.63450   0.49273   0.48651   0.128495  
         H         H         0.46986   0.38944   0.53708   0.117727  
         H         H         0.58110   0.52791   0.47034   0.115740  
         O         O         0.57569   0.26944   0.50254   -0.473720           
         N         N         0.59547   0.20476   0.49557   -0.225420           
         C         C         0.61882   0.29887   0.50500   0.349580  
         C         C         0.63976   0.23852   0.49632   0.119425  
         C         C         0.57817   0.15719   0.49383   0.213239  
         C         C         0.60636   0.13754   0.49051   -0.193997           
         C         C         0.58708   0.08948   0.49500   -0.123748           
         C         C         0.53973   0.06013   0.50303   0.146872  
         C         C         0.51146   0.08012   0.50481   -0.125088           
         C         C         0.53045   0.12796   0.50014   -0.173654           
         C         C         0.65303   0.28476   0.50160   -0.236997           
         H         H         0.66673   0.23001   0.49252   0.102407  
         H         H         0.64289   0.15956   0.48332   0.122856  
         H         H         0.57338   0.21861   0.49654   0.271932  
         H         H         0.50923   0.14347   0.50518   0.125025  
         H         H         0.60807   0.07360   0.49090   0.117558  
         H         H         0.47519   0.05707   0.51335   0.120589  
         O         O         0.73125   0.30511   0.49555   -0.470398           
         N         N         0.79426   0.39139   0.47980   -0.233994           
         C         C         0.70215   0.31835   0.49950   0.356426  
         C         C         0.76146   0.40142   0.48945   0.127146  
         C         C         0.84127   0.42212   0.47532   0.211877  
         C         C         0.86147   0.46995   0.48388   -0.186069           
         C         C         0.90946   0.49787   0.48722   -0.122041           
         C         C         0.93811   0.47916   0.48129   0.145367  
         C         C         0.91737   0.43133   0.46978   -0.120249           
         C         C         0.86963   0.40329   0.46712   -0.175795           
         C         C         0.71617   0.36726   0.49923   -0.245964           
         H         H         0.77007   0.43749   0.48917   0.103192  
         H         H         0.84059   0.48490   0.49375   0.121824  
         H         H         0.78058   0.35533   0.48021   0.270957  
         H         H         0.85320   0.36640   0.45702   0.128304  
         H         H         0.92631   0.53468   0.49818   0.123058  
         H         H         0.93937   0.41751   0.46066   0.115452  
         N         N         0.50744   0.52112   0.48957   -0.149684           
         N         N         0.48058   0.98669   0.51131   -0.145637           
         N         N         0.01145   0.49246   0.48291   -0.148078           
         N         N         0.48960   0.47664   0.49596   -0.154956           
         N         N         0.52440   0.01212   0.50875   -0.146195           
         N         N         0.98593   0.51092   0.48431   -0.147668 

