
##########################################################################
#               Crystallographic Information Format file
#               Produced by PyCifRW module
#
#  This is a CIF file.  CIF has been adopted by the International
#  Union of Crystallography as the standard for data archiving and
#  transmission.
#
#  For information on this file format, follow the CIF links at
#  http://www.iucr.org
##########################################################################

data_image0

_cell_length_a                          34.0548
_cell_length_b                          34.7973
_cell_length_c                          7.95374
_cell_angle_alpha                       60.6994
_cell_angle_beta                        122.977
_cell_angle_gamma                       120.775
_symmetry_space_group_name_H-M          'P 1'
_space_group_name_Hall                  'P 1'
loop_
  _atom_site_type_symbol
  _atom_site_label
  _atom_site_fract_x
  _atom_site_fract_y
  _atom_site_fract_z
  _atom_site_charge
         O         O         0.30067   0.58858   0.96748   -0.473992           
         N         N         0.38364   0.61154   0.94390   -0.229018           
         C         C         0.31240   0.63070   0.95438   0.359589  
         C         C         0.39288   0.65432   0.93838   0.107164  
         C         C         0.41459   0.59508   0.95189   0.207815  
         C         C         0.46263   0.62276   0.95474   -0.180316           
         C         C         0.49127   0.60320   0.96732   -0.133276           
         C         C         0.47373   0.55588   0.97647   0.095960  
         C         C         0.42504   0.52906   0.96999   -0.115022           
         C         C         0.39604   0.54811   0.95688   -0.167700           
         C         C         0.35952   0.66548   0.94197   -0.241617           
         H         H         0.42757   0.68189   0.92977   0.102905  
         H         H         0.47740   0.65947   0.94551   0.124583  
         H         H         0.34895   0.58896   0.95191   0.271462  
         H         H         0.35840   0.52694   0.94938   0.128385  
         H         H         0.52837   0.62510   0.96878   0.103611  
         H         H         0.40964   0.49263   0.97382   0.106454  
         O         O         0.41529   0.74350   0.91806   -0.472800           
         N         N         0.39770   0.80407   0.94083   -0.233469           
         C         C         0.37403   0.71366   0.93124   0.351824  
         C         C         0.35372   0.77118   0.94083   0.114760  
         C         C         0.41635   0.84942   0.95140   0.207084  
         C         C         0.38912   0.86831   0.95567   -0.193481           
         C         C         0.40965   0.91391   0.96363   -0.110550           
         C         C         0.45795   0.94228   0.96647   0.113397  
         C         C         0.48491   0.92303   0.96110   -0.117302           
         C         C         0.46442   0.87736   0.95380   -0.185386           
         C         C         0.34026   0.72666   0.93469   -0.239497           
         H         H         0.32759   0.77891   0.94822   0.101755  
         H         H         0.35204   0.84732   0.95470   0.123429  
         H         H         0.41864   0.79106   0.93421   0.270282  
         H         H         0.48532   0.86275   0.94931   0.130930  
         H         H         0.38873   0.92825   0.96940   0.115303  
         H         H         0.52185   0.94453   0.96091   0.119741  
         O         O         0.26196   0.70651   0.93116   -0.469642           
         N         N         0.20122   0.62199   0.96684   -0.239641           
         C         C         0.29165   0.69352   0.93765   0.354214  
         C         C         0.23407   0.61179   0.96553   0.116810  
         C         C         0.15492   0.59269   0.97699   0.208871  
         C         C         0.13406   0.54557   0.98031   -0.184710           
         C         C         0.08710   0.51884   0.98469   -0.111106           
         C         C         0.05939   0.53814   0.98510   0.112531  
         C         C         0.08074   0.58555   0.98137   -0.114124           
         C         C         0.12771   0.61221   0.97805   -0.185513           
         C         C         0.27878   0.64554   0.95111   -0.245129           
         H         H         0.22627   0.57616   0.97875   0.104485  
         H         H         0.15407   0.52999   0.97603   0.122161  
         H         H         0.21472   0.65762   0.95625   0.275882  
         H         H         0.14415   0.64855   0.97739   0.129655  
         H         H         0.07079   0.48267   0.98397   0.117382  
         H         H         0.06011   0.60075   0.98395   0.115015  
         C         C         0.50532   0.53752   0.98833   -0.148949           
         C         C         0.47879   0.98821   0.97935   -0.107128           
         C         C         0.01197   0.51098   0.99207   -0.105249           
         O         O         0.69085   0.42688   0.03433   -0.484470           
         N         N         0.60863   0.41125   0.04449   -0.230858           
         C         C         0.67582   0.38415   0.04622   0.351801  
         C         C         0.59669   0.36726   0.05484   0.120188  
         C         C         0.57950   0.43050   0.03249   0.216756  
         C         C         0.53217   0.40422   0.03887   -0.183998           
         C         C         0.50537   0.42564   0.02681   -0.113596           
         C         C         0.52386   0.47363   0.00810   0.090677  
         C         C         0.57127   0.49956   -0.00058  -0.113222           
         C         C         0.59861   0.47854   0.01280   -0.182867           
         C         C         0.62788   0.35214   0.05744   -0.254126           
         H         H         0.56091   0.34178   0.05953   0.098799  
         H         H         0.51640   0.36704   0.05455   0.120324  
         H         H         0.64384   0.43176   0.03917   0.274134  
         H         H         0.63523   0.49903   0.00749   0.123975  
         H         H         0.46907   0.40460   0.03527   0.103481  
         H         H         0.58698   0.53680   0.98285   0.106098  
         O         O         0.56563   0.27680   0.05723   -0.484491           
         N         N         0.57966   0.21073   0.04959   -0.229035           
         C         C         0.60883   0.30373   0.05907   0.347933  
         C         C         0.62396   0.24248   0.04910   0.123826  
         C         C         0.56013   0.16566   0.03417   0.216901  
         C         C         0.58707   0.14703   0.02625   -0.195506           
         C         C         0.56623   0.10168   0.01465   -0.112160           
         C         C         0.51784   0.07331   0.01097   0.108240  
         C         C         0.49129   0.09244   0.01953   -0.116302           
         C         C         0.51200   0.13780   0.03080   -0.183462           
         C         C         0.64023   0.28738   0.05744   -0.248622           
         H         H         0.64900   0.23330   0.04180   0.101345  
         H         H         0.62429   0.16786   0.02865   0.122778  
         H         H         0.55931   0.22454   0.05413   0.273815  
         H         H         0.49134   0.15206   0.03889   0.124494  
         H         H         0.58716   0.08744   0.00832   0.118439  
         H         H         0.45434   0.07085   0.01957   0.120626  
         O         O         0.71650   0.30172   0.05962   -0.474626           
         N         N         0.78144   0.38391   0.02631   -0.239017           
         C         C         0.68958   0.31754   0.05607   0.361132  
         C         C         0.75130   0.39709   0.03006   0.126658  
         C         C         0.82764   0.41141   0.01347   0.214075  
         C         C         0.84984   0.45896   0.00472   -0.191689           
         C         C         0.89709   0.48375   0.00321   -0.111291           
         C         C         0.92342   0.46240   0.00637   0.110780  
         C         C         0.90017   0.41492   0.00971   -0.114733           
         C         C         0.85321   0.38981   0.01454   -0.188638           
         C         C         0.70607   0.36599   0.04558   -0.247410           
         H         H         0.76215   0.43325   0.02015   0.101218  
         H         H         0.83076   0.47629   0.00395   0.122776  
         H         H         0.76567   0.34811   0.03588   0.270965  
         H         H         0.83562   0.35318   0.01839   0.130369  
         H         H         0.91470   0.52018   0.00151   0.118643  
         H         H         0.91949   0.39825   0.00753   0.116516  
         C         C         0.49350   0.49301   -0.00170  -0.131601           
         C         C         0.49675   0.02756   0.99578   -0.103990           
         C         C         0.97100   0.48818   0.00060   -0.106645           
         H         H         0.54155   0.56277   0.98731   0.097597  
         H         H         0.45740   0.46791   0.00125   0.094578  
         O         O         0.31066   0.57288   0.46918   -0.484216           
         N         N         0.39279   0.58954   0.45510   -0.232905           
         C         C         0.32533   0.61558   0.45693   0.350203  
         C         C         0.40454   0.63333   0.44657   0.121676  
         C         C         0.42215   0.57070   0.46632   0.217443  
         C         C         0.47050   0.59670   0.47106   -0.182587           
         C         C         0.49749   0.57569   0.48182   -0.117297           
         C         C         0.47819   0.52837   0.48867   0.092573  
         C         C         0.42979   0.50266   0.48685   -0.114339           
         C         C         0.40226   0.52330   0.47454   -0.181678           
         C         C         0.37319   0.64796   0.44547   -0.252387           
         H         H         0.44027   0.65905   0.44196   0.098000  
         H         H         0.48703   0.63325   0.46676   0.119830  
         H         H         0.35750   0.56883   0.45951   0.275065  
         H         H         0.36476   0.50311   0.47034   0.124368  
         H         H         0.53473   0.59646   0.48340   0.103745  
         H         H         0.41334   0.46597   0.49299   0.106923  
         O         O         0.43484   0.72365   0.44352   -0.484277           
         N         N         0.41992   0.78923   0.45149   -0.229432           
         C         C         0.39183   0.69638   0.44314   0.347828  
         C         C         0.37586   0.75708   0.45288   0.124940  
         C         C         0.43887   0.83426   0.46626   0.217962  
         C         C         0.41168   0.85240   0.47535   -0.196657           
         C         C         0.43212   0.89775   0.48648   -0.113412           
         C         C         0.48031   0.92650   0.48853   0.109573  
         C         C         0.50715   0.90785   0.47908   -0.115623           
         C         C         0.48680   0.86253   0.46813   -0.185628           
         C         C         0.36010   0.71224   0.44522   -0.247527           
         H         H         0.35059   0.76599   0.45997   0.100816  
         H         H         0.37456   0.83128   0.47387   0.126011  
         H         H         0.44063   0.77590   0.44678   0.273707  
         H         H         0.50755   0.84861   0.45885   0.124237  
         H         H         0.41106   0.91170   0.49372   0.119118  
         H         H         0.54399   0.92976   0.47815   0.119934  
         O         O         0.28360   0.69724   0.44317   -0.473009           
         N         N         0.21876   0.61493   0.47350   -0.237444           
         C         C         0.31081   0.68173   0.44681   0.358466  
         C         C         0.24930   0.60206   0.47074   0.128499  
         C         C         0.17243   0.58728   0.48519   0.211843  
         C         C         0.15031   0.53977   0.49350   -0.190170           
         C         C         0.10298   0.51486   0.49423   -0.111901           
         C         C         0.07646   0.53605   0.49073   0.112088  
         C         C         0.09964   0.58350   0.48800   -0.115409           
         C         C         0.14666   0.60873   0.48387   -0.188325           
         C         C         0.29467   0.63337   0.45695   -0.247213           
         H         H         0.23858   0.56601   0.47964   0.100200  
         H         H         0.16956   0.52250   0.49510   0.122180  
         H         H         0.23432   0.65068   0.46462   0.270626  
         H         H         0.16416   0.64531   0.48078   0.130134  
         H         H         0.08546   0.47846   0.49571   0.117377  
         H         H         0.08016   0.59998   0.49037   0.118771  
         C         C         0.50863   0.50916   0.49802   -0.132482           
         C         C         0.50106   0.97221   0.50338   -0.104956           
         C         C         0.02885   0.51025   0.49637   -0.108879           
         O         O         0.69998   0.41136   0.53357   -0.472608           
         N         N         0.61736   0.38867   0.55865   -0.228040           
         C         C         0.68805   0.36918   0.54670   0.358235  
         C         C         0.60780   0.34583   0.56388   0.107263  
         C         C         0.58661   0.40544   0.54990   0.209090  
         C         C         0.53960   0.37749   0.55864   -0.183303           
         C         C         0.51120   0.39766   0.54364   -0.131494           
         C         C         0.52802   0.44575   0.52143   0.095718  
         C         C         0.57557   0.47288   0.51526   -0.115894           
         C         C         0.60437   0.45323   0.53085   -0.167411           
         C         C         0.64096   0.33444   0.56007   -0.240553           
         H         H         0.57296   0.31854   0.57207   0.103380  
         H         H         0.52560   0.34017   0.57976   0.125809  
         H         H         0.65196   0.41124   0.54956   0.270212  
         H         H         0.64099   0.47465   0.52642   0.125851  
         H         H         0.47498   0.37564   0.55198   0.104120  
         H         H         0.58997   0.51009   0.49688   0.109458  
         O         O         0.58520   0.25639   0.58558   -0.471486           
         N         N         0.60237   0.19562   0.56280   -0.233405           
         C         C         0.62636   0.28620   0.57133   0.350637  
         C         C         0.64634   0.22841   0.56175   0.114192  
         C         C         0.58321   0.15022   0.55177   0.206273  
         C         C         0.61004   0.13091   0.54738   -0.194682           
         C         C         0.58890   0.08534   0.53807   -0.112474           
         C         C         0.54042   0.05743   0.53408   0.114334  
         C         C         0.51390   0.07716   0.53939   -0.119186           
         C         C         0.53492   0.12278   0.54795   -0.184511           
         C         C         0.65988   0.27307   0.56683   -0.238024           
         H         H         0.67239   0.22049   0.55467   0.101597  
         H         H         0.64721   0.15161   0.54854   0.126129  
         H         H         0.58166   0.20886   0.56961   0.270006  
         H         H         0.51423   0.13774   0.55182   0.131167  
         H         H         0.60940   0.07068   0.53158   0.115057  
         H         H         0.47681   0.05606   0.53820   0.121061  
         O         O         0.73780   0.29312   0.56748   -0.468151           
         N         N         0.79888   0.37741   0.53361   -0.237399           
         C         C         0.70834   0.30619   0.56228   0.353894  
         C         C         0.76621   0.38784   0.53505   0.117812  
         C         C         0.84520   0.40646   0.52328   0.210155  
         C         C         0.86619   0.45370   0.51855   -0.187919           
         C         C         0.91307   0.48029   0.51312   -0.114150           
         C         C         0.94058   0.46067   0.51328   0.113042  
         C         C         0.91913   0.41315   0.51866   -0.117430           
         C         C         0.87224   0.38661   0.52296   -0.185247           
         C         C         0.72144   0.35419   0.54930   -0.244538           
         H         H         0.77409   0.42346   0.52226   0.104153  
         H         H         0.84626   0.46943   0.52248   0.126072  
         H         H         0.78505   0.34170   0.54403   0.270072  
         H         H         0.85576   0.35019   0.52466   0.129611  
         H         H         0.92939   0.51662   0.51193   0.120409  
         H         H         0.93962   0.39777   0.51628   0.117083  
         C         C         0.49682   0.46453   0.50954   -0.148983           
         C         C         0.51910   0.01155   0.51997   -0.106408           
         C         C         0.98793   0.48760   0.50537   -0.103894           
         H         H         0.54475   0.53427   0.49524   0.094108  
         H         H         0.46087   0.43925   0.51388   0.098402 

