
##########################################################################
#               Crystallographic Information Format file
#               Produced by PyCifRW module
#
#  This is a CIF file.  CIF has been adopted by the International
#  Union of Crystallography as the standard for data archiving and
#  transmission.
#
#  For information on this file format, follow the CIF links at
#  http://www.iucr.org
##########################################################################

data_image0

_cell_length_a                          8.36488
_cell_length_b                          8.36966
_cell_length_c                          7.76322
_cell_angle_alpha                       90.8983
_cell_angle_beta                        90.9261
_cell_angle_gamma                       120
_symmetry_space_group_name_H-M          'P 1'
_space_group_name_Hall                  'P 1'
loop_
  _atom_site_type_symbol
  _atom_site_label
  _atom_site_fract_x
  _atom_site_fract_y
  _atom_site_fract_z
  _atom_site_charge
         C         C         0.84958   0.33145   0.24481   0.094941  
         C         C         0.66959   0.49943   0.24676   0.092567  
         C         C         0.50134   0.15161   0.24697   0.095007  
         C         C         0.16426   0.65727   0.24767   0.093479  
         C         C         0.34423   0.48919   0.24832   0.096515  
         C         C         0.51249   0.83714   0.25028   0.094445  
         C         C         0.34416   0.83700   0.24893   0.092040  
         C         C         0.51266   0.65742   0.25034   0.096062  
         C         C         0.16437   0.48925   0.24680   0.092606  
         C         C         0.66969   0.15169   0.24648   0.095472  
         C         C         0.50138   0.33144   0.24693   0.093229  
         C         C         0.84941   0.49957   0.24545   0.094638  
         N         N         0.33830   0.32607   0.24742   -0.189748           
         N         N         0.67564   0.99454   0.24886   -0.185007           
         N         N         0.00669   0.66289   0.24645   -0.191442           
         N         N         0.67557   0.66275   0.24943   -0.189112           
         N         N         0.33819   0.99431   0.24797   -0.191268           
         N         N         0.00703   0.32591   0.24467   -0.184506           
         C         C         0.83580   0.34282   0.75381   0.093173  
         C         C         0.65586   0.51085   0.74997   0.096205  
         C         C         0.48764   0.16299   0.75287   0.092730  
         C         C         0.15043   0.66835   0.75076   0.095073  
         C         C         0.33052   0.50064   0.75395   0.093579  
         C         C         0.49881   0.84848   0.75345   0.094390  
         C         C         0.33039   0.84831   0.75200   0.095931  
         C         C         0.49866   0.66859   0.75238   0.091814  
         C         C         0.15057   0.50029   0.75379   0.094424  
         C         C         0.65598   0.16316   0.75437   0.092902  
         C         C         0.48755   0.34279   0.75231   0.097012  
         C         C         0.83569   0.51079   0.74997   0.093519  
         N         N         0.32473   0.33744   0.75411   -0.189566           
         N         N         0.66202   0.00587   0.75520   -0.190951           
         N         N         0.99297   0.67393   0.74827   -0.185152           
         N         N         0.66167   0.67393   0.74973   -0.189176           
         N         N         0.32443   0.00551   0.75216   -0.184759           
         N         N         0.99336   0.33709   0.75584   -0.191067 

