
##########################################################################
#               Crystallographic Information Format file
#               Produced by PyCifRW module
#
#  This is a CIF file.  CIF has been adopted by the International
#  Union of Crystallography as the standard for data archiving and
#  transmission.
#
#  For information on this file format, follow the CIF links at
#  http://www.iucr.org
##########################################################################

data_image0

_cell_length_a                          27.5929
_cell_length_b                          29.0578
_cell_length_c                          8.12609
_cell_angle_alpha                       92.9986
_cell_angle_beta                        104.759
_cell_angle_gamma                       80.4808
_symmetry_space_group_name_H-M          'P 1'
_space_group_name_Hall                  'P 1'
loop_
  _atom_site_type_symbol
  _atom_site_label
  _atom_site_fract_x
  _atom_site_fract_y
  _atom_site_fract_z
  _atom_site_charge
         C         C         0.55752   0.87049   0.11842   -0.170766           
         C         C         0.51403   0.86489   0.17722   0.197138  
         C         C         0.48395   0.90431   0.22104   -0.197501           
         C         C         0.49363   0.94988   0.20089   0.073197  
         C         C         0.53673   0.95538   0.13769   0.066403  
         C         C         0.56821   0.91405   0.09963   -0.123477           
         C         C         0.54626   0.00028   0.11665   -0.186203           
         H         H         0.58249   0.83989   0.08866   0.108208  
         H         H         0.45194   0.89986   0.27065   0.122596  
         H         H         0.60107   0.91785   0.05367   0.105810  
         H         H         0.57823   0.00444   0.06590   0.112540  
         N         N         0.49950   0.82200   0.19691   -0.294842           
         C         C         0.51514   0.78491   0.11781   0.061298  
         H         H         0.53973   0.78504   0.03052   0.065781  
         C         C         0.09578   0.58097   0.43132   -0.180625           
         C         C         0.12627   0.53958   0.38695   0.211540  
         C         C         0.10820   0.49744   0.37549   -0.204272           
         C         C         0.05966   0.49456   0.39920   0.081548  
         C         C         0.02919   0.53635   0.44435   0.068706  
         C         C         0.04948   0.57904   0.46171   -0.126470           
         C         C         0.98121   0.53379   0.46838   -0.182490           
         H         H         0.11049   0.61387   0.44593   0.101048  
         H         H         0.13176   0.46614   0.34368   0.124068  
         H         H         0.02746   0.61036   0.50090   0.105403  
         H         H         0.95843   0.56531   0.50296   0.112733  
         N         N         0.17472   0.53853   0.36352   -0.281159           
         C         C         0.18789   0.57347   0.30291   0.067304  
         H         H         0.16098   0.60516   0.25627   0.059545  
         C         C         0.57766   0.39138   0.22785   -0.186266           
         C         C         0.52618   0.38966   0.20898   0.024743  
         C         C         0.49255   0.43225   0.21436   0.031501  
         C         C         0.51132   0.47580   0.22438   0.005988  
         C         C         0.56385   0.47605   0.23266   0.035713  
         C         C         0.59774   0.43300   0.24211   0.024082  
         C         C         0.58033   0.52006   0.23369   -0.132187           
         C         C         0.54817   0.56120   0.23374   -0.131932           
         H         H         0.60343   0.35858   0.23109   0.104919  
         H         H         0.61951   0.52083   0.23409   0.106827  
         H         H         0.56347   0.59356   0.24396   0.108449  
         C         C         0.65314   0.43014   0.26735   0.068535  
         C         C         0.68029   0.39503   0.18471   -0.135467           
         C         C         0.73265   0.39111   0.21040   -0.124869           
         C         C         0.75982   0.42271   0.31833   0.046688  
         C         C         0.73315   0.45720   0.40433   -0.107079           
         C         C         0.68111   0.46046   0.38088   -0.128321           
         H         H         0.65967   0.37178   0.09412   0.105715  
         H         H         0.75263   0.36470   0.14072   0.102915  
         H         H         0.75465   0.48048   0.49201   0.115460  
         H         H         0.66174   0.48553   0.45619   0.107429  
         C         C         0.47304   0.65141   0.17561   0.066214  
         C         C         0.51092   0.65600   0.09194   -0.140071           
         C         C         0.52467   0.69912   0.07548   -0.128397           
         C         C         0.49980   0.74020   0.13611   0.050217  
         C         C         0.45930   0.73659   0.20833   -0.107351           
         C         C         0.44668   0.69333   0.22867   -0.129348           
         H         H         0.52852   0.62561   0.03308   0.104586  
         H         H         0.55435   0.70128   0.01104   0.104709  
         H         H         0.43923   0.76829   0.25308   0.113068  
         H         H         0.41734   0.69188   0.29494   0.105779  
         C         C         0.45085   0.11911   0.24467   -0.184526           
         C         C         0.49307   0.12516   0.17996   0.205751  
         C         C         0.52459   0.08614   0.14023   -0.213322           
         C         C         0.51497   0.04036   0.15758   0.081785  
         C         C         0.47204   0.03471   0.22202   0.060328  
         C         C         0.44110   0.07540   0.26673   -0.118338           
         C         C         0.46256   0.98978   0.24210   -0.178974           
         H         H         0.42839   0.14984   0.28556   0.104667  
         H         H         0.55678   0.09103   0.09245   0.126621  
         H         H         0.41039   0.07104   0.32359   0.108750  
         H         H         0.43065   0.98559   0.29264   0.112397  
         N         N         0.50555   0.16933   0.16916   -0.272322           
         C         C         0.47102   0.20498   0.11858   0.065639  
         H         H         0.43090   0.20169   0.06354   0.063539  
         C         C         0.92252   0.40657   0.38552   -0.175514           
         C         C         0.89112   0.44806   0.42425   0.208275  
         C         C         0.91162   0.48903   0.46044   -0.198423           
         C         C         0.96129   0.49172   0.44553   0.082905  
         C         C         0.99193   0.45001   0.40055   0.066834  
         C         C         0.97110   0.40761   0.37562   -0.123800           
         C         C         0.04034   0.45227   0.38089   -0.185705           
         H         H         0.90762   0.37381   0.36594   0.104358  
         H         H         0.88801   0.52020   0.49309   0.123854  
         H         H         0.99471   0.37598   0.34651   0.104685  
         H         H         0.06332   0.42081   0.34687   0.112662  
         N         N         0.84009   0.45000   0.42414   -0.291724           
         C         C         0.81384   0.42050   0.33214   0.061619  
         H         H         0.83005   0.39363   0.25232   0.061818  
         C         C         0.41137   0.60347   0.22097   -0.176549           
         C         C         0.46037   0.60553   0.20591   0.024791  
         C         C         0.49545   0.56281   0.22198   0.036030  
         C         C         0.47750   0.51921   0.22562   0.000116  
         C         C         0.42588   0.51887   0.23037   0.034038  
         C         C         0.39346   0.56226   0.23970   0.024517  
         C         C         0.40873   0.47475   0.21868   -0.131213           
         C         C         0.44047   0.43360   0.21190   -0.135034           
         H         H         0.38530   0.63599   0.21765   0.105796  
         H         H         0.36907   0.47397   0.21193   0.112595  
         H         H         0.42586   0.40090   0.20469   0.104045  
         C         C         0.34138   0.56590   0.26138   0.072739  
         C         C         0.30301   0.60230   0.18425   -0.129813           
         C         C         0.25345   0.60552   0.20029   -0.131332           
         C         C         0.23989   0.57154   0.28948   0.054417  
         C         C         0.27809   0.53567   0.36940   -0.100336           
         C         C         0.32769   0.53357   0.35830   -0.138930           
         H         H         0.31169   0.62693   0.10363   0.106850  
         H         H         0.22444   0.63348   0.13649   0.101843  
         H         H         0.26776   0.51078   0.44478   0.111193  
         H         H         0.35694   0.50724   0.42973   0.099910  
         C         C         0.51002   0.34317   0.18558   0.075500  
         C         C         0.46698   0.33412   0.05981   -0.134800           
         C         C         0.45362   0.28955   0.03752   -0.130984           
         C         C         0.48392   0.25214   0.13648   0.048248  
         C         C         0.52750   0.26086   0.26007   -0.101443           
         C         C         0.53985   0.30548   0.28541   -0.132907           
         H         H         0.44486   0.36219   0.97602   0.106360  
         H         H         0.42054   0.28344   0.93759   0.102853  
         H         H         0.55020   0.23186   0.33794   0.115435  
         H         H         0.57224   0.31188   0.38746   0.107914  
         C         C         0.55353   0.88075   0.63095   -0.168560           
         C         C         0.50792   0.87506   0.67644   0.204396  
         C         C         0.47642   0.91439   0.71351   -0.202633           
         C         C         0.48721   0.96002   0.70125   0.076478  
         C         C         0.53294   0.96540   0.65339   0.068921  
         C         C         0.56553   0.92422   0.62069   -0.123871           
         C         C         0.54380   0.01018   0.64009   -0.186349           
         H         H         0.57913   0.85007   0.60580   0.111560  
         H         H         0.44273   0.90978   0.75304   0.123358  
         H         H         0.60027   0.92804   0.58619   0.109015  
         H         H         0.57782   0.01428   0.60133   0.113989  
         N         N         0.49361   0.83183   0.69240   -0.296286           
         C         C         0.51167   0.79498   0.61713   0.063851  
         H         H         0.53701   0.79614   0.53324   0.065820  
         C         C         0.09711   0.58734   0.92451   -0.183730           
         C         C         0.12829   0.54582   0.88440   0.206183  
         C         C         0.11062   0.50352   0.87432   -0.198907           
         C         C         0.06205   0.50049   0.89763   0.080859  
         C         C         0.03170   0.54210   0.94492   0.066348  
         C         C         0.05110   0.58518   0.95718   -0.125492           
         C         C         0.98442   0.53895   0.97395   -0.184157           
         H         H         0.11125   0.62044   0.93317   0.103213  
         H         H         0.13476   0.47230   0.84472   0.124612  
         H         H         0.02828   0.61652   0.99280   0.104941  
         H         H         0.96179   0.57000   0.01251   0.112882  
         N         N         0.17697   0.54490   0.86296   -0.277656           
         C         C         0.18929   0.57834   0.79113   0.065198  
         H         H         0.16147   0.60839   0.73324   0.059428  
         C         C         0.57988   0.39922   0.72774   -0.182295           
         C         C         0.52835   0.39751   0.70591   0.021742  
         C         C         0.49510   0.44001   0.71455   0.036692  
         C         C         0.51386   0.48351   0.72477   0.005215  
         C         C         0.56665   0.48377   0.73747   0.034168  
         C         C         0.60056   0.44061   0.74886   0.022847  
         C         C         0.58283   0.52791   0.73869   -0.131642           
         C         C         0.55009   0.56903   0.73098   -0.132064           
         H         H         0.60532   0.36639   0.72886   0.101974  
         H         H         0.62230   0.52898   0.74472   0.105159  
         H         H         0.56523   0.60141   0.73792   0.105647  
         C         C         0.65625   0.43687   0.78020   0.071922  
         C         C         0.68355   0.40063   0.70250   -0.134000           
         C         C         0.73588   0.39643   0.72799   -0.124562           
         C         C         0.76317   0.42863   0.83169   0.046596  
         C         C         0.73652   0.46375   0.91571   -0.105509           
         C         C         0.68439   0.46743   0.89194   -0.131612           
         H         H         0.66300   0.37695   0.61388   0.105751  
         H         H         0.75562   0.36925   0.66044   0.103973  
         H         H         0.75791   0.48771   0.00009   0.115790  
         H         H         0.66501   0.49342   0.96427   0.107555  
         C         C         0.47411   0.65935   0.67246   0.069504  
         C         C         0.51182   0.66537   0.58999   -0.137035           
         C         C         0.52425   0.70921   0.57464   -0.124579           
         C         C         0.49806   0.74947   0.63519   0.047145  
         C         C         0.45819   0.74434   0.70848   -0.110796           
         C         C         0.44703   0.70047   0.72840   -0.127847           
         H         H         0.53012   0.63560   0.53007   0.105592  
         H         H         0.55358   0.71264   0.51015   0.105194  
         H         H         0.43734   0.77548   0.75358   0.113932  
         H         H         0.41803   0.69777   0.79494   0.106516  
         C         C         0.44422   0.12958   0.73977   -0.183615           
         C         C         0.48893   0.13517   0.68894   0.200543  
         C         C         0.52187   0.09592   0.65928   -0.204769           
         C         C         0.51122   0.05033   0.67231   0.078932  
         C         C         0.46580   0.04494   0.72213   0.063749  
         C         C         0.43358   0.08594   0.75791   -0.122246           
         C         C         0.45508   0.00007   0.73606   -0.183062           
         H         H         0.42026   0.16056   0.77246   0.102307  
         H         H         0.55588   0.10061   0.62169   0.126690  
         H         H         0.40083   0.08168   0.80387   0.108277  
         H         H         0.42117   0.99608   0.77572   0.113124  
         N         N         0.50227   0.17889   0.67834   -0.273850           
         C         C         0.46843   0.21483   0.62447   0.060328  
         H         H         0.42816   0.21215   0.56881   0.064700  
         C         C         0.92573   0.41147   0.88804   -0.177509           
         C         C         0.89492   0.45268   0.93206   0.209727  
         C         C         0.91562   0.49349   0.96976   -0.199487           
         C         C         0.96476   0.49673   0.95107   0.081214  
         C         C         0.99476   0.45545   0.90040   0.069301  
         C         C         0.97384   0.41304   0.87410   -0.121725           
         C         C         0.04271   0.45818   0.87749   -0.185834           
         H         H         0.91100   0.37858   0.86786   0.107750  
         H         H         0.89214   0.52414   0.00647   0.121329  
         H         H         0.99695   0.38160   0.84111   0.104659  
         H         H         0.06509   0.42704   0.83875   0.111182  
         N         N         0.84418   0.45486   0.93597   -0.288579           
         C         C         0.81696   0.42652   0.84128   0.059942  
         H         H         0.83224   0.40091   0.75548   0.062915  
         C         C         0.41240   0.61061   0.70990   -0.176572           
         C         C         0.46171   0.61299   0.69852   0.020488  
         C         C         0.49721   0.57048   0.71647   0.033648  
         C         C         0.47967   0.52682   0.72277   0.001213  
         C         C         0.42808   0.52622   0.72736   0.035262  
         C         C         0.39493   0.56936   0.73096   0.026936  
         C         C         0.41166   0.48199   0.72287   -0.130207           
         C         C         0.44355   0.44103   0.71699   -0.136598           
         H         H         0.38582   0.64291   0.70312   0.106104  
         H         H         0.37246   0.48067   0.72060   0.110910  
         H         H         0.42949   0.40825   0.71526   0.105229  
         C         C         0.34275   0.57252   0.75120   0.075816  
         C         C         0.30371   0.60763   0.66892   -0.130684           
         C         C         0.25418   0.61001   0.68399   -0.136763           
         C         C         0.24132   0.57683   0.77867   0.052680  
         C         C         0.28037   0.54248   0.86490   -0.099321           
         C         C         0.32985   0.54100   0.85339   -0.140320           
         H         H         0.31174   0.63167   0.58465   0.104361  
         H         H         0.22468   0.63692   0.61569   0.101921  
         H         H         0.27109   0.51812   0.94505   0.111792  
         H         H         0.35957   0.51583   0.92900   0.099288  
         C         C         0.51159   0.35136   0.68097   0.076693  
         C         C         0.46661   0.34333   0.56256   -0.134127           
         C         C         0.45199   0.29925   0.54367   -0.130695           
         C         C         0.48283   0.26133   0.63832   0.048073  
         C         C         0.52845   0.26896   0.75347   -0.100076           
         C         C         0.54216   0.31304   0.77547   -0.133430           
         H         H         0.44370   0.37184   0.48255   0.106670  
         H         H         0.41694   0.29401   0.45163   0.104068  
         H         H         0.55164   0.23964   0.82849   0.115518  
         H         H         0.57632   0.31862   0.87117   0.106747 

