
##########################################################################
#               Crystallographic Information Format file
#               Produced by PyCifRW module
#
#  This is a CIF file.  CIF has been adopted by the International
#  Union of Crystallography as the standard for data archiving and
#  transmission.
#
#  For information on this file format, follow the CIF links at
#  http://www.iucr.org
##########################################################################

data_image0

_cell_length_a                          29.0623
_cell_length_b                          29.078
_cell_length_c                          8.50491
_cell_angle_alpha                       84.7535
_cell_angle_beta                        82.4014
_cell_angle_gamma                       89.8135
_symmetry_space_group_name_H-M          'P 1'
_space_group_name_Hall                  'P 1'
loop_
  _atom_site_type_symbol
  _atom_site_label
  _atom_site_fract_x
  _atom_site_fract_y
  _atom_site_fract_z
  _atom_site_charge
         N         N         0.04339   0.94410   0.24162   -0.250348           
         N         N         0.95515   0.06082   0.25014   -0.252852           
         H         H         0.02222   0.97207   0.25294   0.273347  
         H         H         0.97561   0.03215   0.25530   0.272887  
         C         C         0.09105   0.94536   0.23793   0.177976  
         C         C         0.90791   0.05986   0.24246   0.184246  
         C         C         0.02828   0.90015   0.22505   0.181879  
         C         C         0.97167   0.10580   0.23396   0.180468  
         C         C         0.10705   0.89942   0.21421   -0.183160           
         C         C         0.89391   0.10706   0.21738   -0.193217           
         C         C         0.06902   0.87246   0.20354   -0.188904           
         C         C         0.93237   0.13481   0.21288   -0.184390           
         H         H         0.14288   0.88848   0.20774   0.140181  
         H         H         0.85908   0.11865   0.20262   0.137808  
         H         H         0.06832   0.83638   0.18366   0.132448  
         H         H         0.93279   0.17220   0.19679   0.134170  
         N         N         0.05645   0.04385   0.24238   -0.405409           
         N         N         0.94264   0.96174   0.24051   -0.408866           
         C         C         0.10103   0.03018   0.25765   0.192765  
         C         C         0.89658   0.97420   0.26369   0.191518  
         C         C         0.94240   0.91421   0.25425   0.195932  
         C         C         0.05659   0.09092   0.24870   0.195214  
         C         C         0.12978   0.06944   0.27988   -0.184793           
         C         C         0.86666   0.93350   0.29917   -0.192230           
         C         C         0.89506   0.89629   0.29375   -0.185465           
         C         C         0.10237   0.10739   0.27287   -0.181012           
         H         H         0.16578   0.06771   0.29894   0.121161  
         H         H         0.82922   0.93370   0.32474   0.123296  
         H         H         0.88503   0.86029   0.31466   0.128656  
         H         H         0.11191   0.14275   0.28481   0.128040  
         C         C         0.11810   0.98464   0.25201   -0.069484           
         C         C         0.87938   0.02000   0.25679   -0.080964           
         C         C         0.98176   0.88505   0.23611   -0.078361           
         C         C         0.01786   0.12020   0.23720   -0.069753           
         C         C         0.16802   0.97615   0.26243   0.088000  
         C         C         0.82844   0.02746   0.26796   0.085580  
         C         C         0.97345   0.83495   0.23080   0.085010  
         C         C         0.02541   0.17089   0.23354   0.082569  
         C         C         0.20365   0.00076   0.16264   -0.126579           
         C         C         0.80027   0.00183   0.18393   -0.124157           
         C         C         0.80609   0.06037   0.36347   -0.126386           
         C         C         0.18095   0.94054   0.37030   -0.138131           
         C         C         0.99637   0.80045   0.31803   -0.129328           
         C         C         0.00023   0.19588   0.34924   -0.133453           
         C         C         0.05867   0.19481   0.12028   -0.122355           
         C         C         0.94069   0.82033   0.13735   -0.125967           
         H         H         0.19491   0.02729   0.07396   0.106066  
         H         H         0.81620   0.97841   0.10060   0.104975  
         H         H         0.82601   0.07996   0.43449   0.104009  
         H         H         0.15331   0.92214   0.44844   0.094639  
         H         H         0.01967   0.81104   0.39823   0.104068  
         H         H         0.97608   0.17676   0.43935   0.091963  
         H         H         0.07724   0.17647   0.02595   0.102633  
         H         H         0.92362   0.84635   0.06660   0.099034  
         C         C         0.25000   0.98997   0.17081   -0.125002           
         C         C         0.75234   0.00736   0.19990   -0.128628           
         C         C         0.75869   0.06751   0.37245   -0.089004           
         C         C         0.22704   0.92933   0.37825   -0.082527           
         C         C         0.98808   0.75370   0.30801   -0.123431           
         C         C         0.00733   0.24306   0.35401   -0.128508           
         C         C         0.06777   0.24142   0.12788   -0.088949           
         C         C         0.93061   0.77402   0.13283   -0.082896           
         H         H         0.27646   0.00823   0.08649   0.093639  
         H         H         0.73302   0.98670   0.13034   0.098982  
         H         H         0.74142   0.09294   0.44509   0.132118  
         H         H         0.23688   0.90157   0.46136   0.129300  
         H         H         0.00745   0.72886   0.37710   0.095606  
         H         H         0.98873   0.26051   0.45113   0.094777  
         H         H         0.09526   0.25945   0.04523   0.131459  
         H         H         0.90520   0.76263   0.06147   0.126187  
         C         C         0.26243   0.95428   0.27860   -0.046449           
         C         C         0.73082   0.04078   0.29319   -0.051753           
         C         C         0.95464   0.73968   0.21591   -0.045371           
         C         C         0.04176   0.26608   0.24347   -0.049982           
         C         C         0.99559   0.53737   0.27196   -0.049308           
         C         C         0.99576   0.46588   0.27271   -0.051956           
         C         C         0.03192   0.50141   0.28586   0.280487  
         C         C         0.95991   0.50174   0.25083   0.280886  
         C         C         0.99838   0.58500   0.28318   -0.002063           
         C         C         0.99101   0.41776   0.27896   -0.007144           
         O         O         0.07305   0.50191   0.30100   -0.385080           
         O         O         0.91944   0.50062   0.22711   -0.386046           
         N         N         0.96455   0.61210   0.24205   -0.007445           
         N         N         0.02737   0.39072   0.28577   -0.017533           
         N         N         0.97204   0.65689   0.25249   -0.207102           
         N         N         0.01926   0.34561   0.28210   -0.222518           
         H         H         0.00175   0.66693   0.29211   0.239740  
         H         H         0.98643   0.33348   0.27570   0.241410  
         C         C         0.94278   0.69090   0.19171   0.428511  
         C         C         0.05659   0.31481   0.24999   0.430426  
         O         O         0.91097   0.68026   0.12136   -0.393804           
         O         O         0.09710   0.32695   0.22376   -0.370161           
         H         H         0.95615   0.40402   0.27174   0.094497  
         H         H         0.02986   0.59972   0.32000   0.090198  
         C         C         0.53727   0.99583   0.19295   -0.052412           
         C         C         0.46627   0.99710   0.18431   -0.058043           
         C         C         0.50194   0.95969   0.18269   0.280137  
         C         C         0.50236   0.03372   0.18735   0.280699  
         C         C         0.58414   0.99077   0.21253   -0.006660           
         C         C         0.41792   0.00079   0.19446   -0.008717           
         O         O         0.50415   0.91788   0.17443   -0.384218           
         O         O         0.50188   0.07566   0.18854   -0.376404           
         N         N         0.60787   0.02605   0.24879   -0.007054           
         N         N         0.39038   0.96409   0.22455   -0.008203           
         N         N         0.65279   0.01838   0.25554   -0.207319           
         N         N         0.34518   0.97345   0.23055   -0.216758           
         H         H         0.66782   0.98880   0.21657   0.235561  
         H         H         0.33488   0.00696   0.20834   0.237529  
         C         C         0.68043   0.05143   0.31150   0.419744  
         C         C         0.31106   0.93921   0.28870   0.429137  
         O         O         0.66369   0.08571   0.37028   -0.381387           
         O         O         0.32122   0.90113   0.34596   -0.378255           
         H         H         0.40383   0.03589   0.18043   0.091806  
         H         H         0.59928   0.95620   0.19994   0.095214  
         N         N         0.04282   0.94223   0.73944   -0.257898           
         N         N         0.95879   0.06032   0.74216   -0.252056           
         H         H         0.02099   0.96908   0.76222   0.275063  
         H         H         0.97873   0.03277   0.77207   0.276598  
         C         C         0.09047   0.94414   0.73126   0.186431  
         C         C         0.91290   0.05813   0.71848   0.184779  
         C         C         0.02828   0.89953   0.70567   0.183878  
         C         C         0.97534   0.10506   0.71574   0.182274  
         C         C         0.10719   0.90053   0.68221   -0.189023           
         C         C         0.90023   0.10392   0.66523   -0.183335           
         C         C         0.06959   0.87415   0.66116   -0.184462           
         C         C         0.93778   0.13247   0.66650   -0.191524           
         H         H         0.14336   0.89074   0.66628   0.140913  
         H         H         0.86694   0.11368   0.62910   0.135115  
         H         H         0.07048   0.84026   0.61819   0.133842  
         H         H         0.93846   0.16940   0.63817   0.133572  
         N         N         0.05586   0.04147   0.75787   -0.408421           
         N         N         0.94476   0.96007   0.74888   -0.406310           
         C         C         0.09862   0.02610   0.79178   0.192979  
         C         C         0.89962   0.97367   0.78513   0.194777  
         C         C         0.94354   0.91282   0.77340   0.192659  
         C         C         0.05548   0.08789   0.77792   0.192316  
         C         C         0.12432   0.06300   0.84652   -0.183607           
         C         C         0.86963   0.93443   0.84701   -0.190082           
         C         C         0.89695   0.89645   0.83913   -0.189421           
         C         C         0.09766   0.10143   0.83750   -0.185924           
         H         H         0.15752   0.05973   0.88965   0.117933  
         H         H         0.83306   0.93560   0.89163   0.124203  
         H         H         0.88613   0.86118   0.87552   0.130480  
         H         H         0.10544   0.13515   0.87143   0.122735  
         C         C         0.11682   0.98168   0.76699   -0.075042           
         C         C         0.88358   0.01902   0.75543   -0.076098           
         C         C         0.98180   0.88366   0.73403   -0.075464           
         C         C         0.01991   0.11918   0.74182   -0.075272           
         C         C         0.16713   0.97334   0.77295   0.088053  
         C         C         0.83296   0.02675   0.76752   0.080655  
         C         C         0.97297   0.83386   0.72986   0.080482  
         C         C         0.02932   0.16943   0.73211   0.087947  
         C         C         0.20167   0.00225   0.68277   -0.125450           
         C         C         0.80386   0.99799   0.69785   -0.125434           
         C         C         0.81251   0.06348   0.84964   -0.127357           
         C         C         0.18200   0.93461   0.86445   -0.132627           
         C         C         0.00113   0.79988   0.79690   -0.130897           
         C         C         0.99690   0.19987   0.80344   -0.132895           
         C         C         0.07137   0.18859   0.65049   -0.122359           
         C         C         0.93459   0.81859   0.66261   -0.124078           
         H         H         0.19166   0.03162   0.60630   0.116452  
         H         H         0.81951   0.97108   0.62727   0.114309  
         H         H         0.83449   0.08479   0.90902   0.110597  
         H         H         0.15630   0.91237   0.93862   0.101822  
         H         H         0.02910   0.81028   0.85938   0.112712  
         H         H         0.96464   0.18596   0.87003   0.107409  
         H         H         0.09640   0.16605   0.58947   0.116527  
         H         H         0.91308   0.84413   0.60652   0.111994  
         C         C         0.24876   0.99256   0.68396   -0.129586           
         C         C         0.75613   0.00559   0.71079   -0.124483           
         C         C         0.76500   0.07141   0.86110   -0.083211           
         C         C         0.22872   0.92486   0.86539   -0.081125           
         C         C         0.99234   0.75308   0.79091   -0.127576           
         C         C         0.00650   0.24695   0.79731   -0.131760           
         C         C         0.08113   0.23552   0.64674   -0.079529           
         C         C         0.92491   0.77192   0.66220   -0.078876           
         H         H         0.27406   0.01443   0.60556   0.098452  
         H         H         0.73555   0.98485   0.64478   0.100337  
         H         H         0.74909   0.10001   0.92337   0.133125  
         H         H         0.23979   0.89483   0.93617   0.129759  
         H         H         0.01464   0.72839   0.84709   0.095628  
         H         H         0.98128   0.26830   0.86200   0.099580  
         H         H         0.11373   0.25001   0.58515   0.134527  
         H         H         0.89516   0.76030   0.61108   0.130097  
         C         C         0.26297   0.95391   0.77636   -0.039275           
         C         C         0.73600   0.04219   0.79287   -0.047755           
         C         C         0.95438   0.73820   0.72224   -0.037952           
         C         C         0.04897   0.26546   0.72169   -0.044006           
         C         C         0.00049   0.53580   0.76988   -0.051324           
         C         C         0.00068   0.46393   0.78065   -0.048336           
         C         C         0.03593   0.49972   0.79987   0.279103  
         C         C         0.96480   0.49961   0.75883   0.277847  
         C         C         0.00519   0.58412   0.75976   -0.004855           
         C         C         0.99735   0.41631   0.77043   -0.003893           
         O         O         0.07595   0.50015   0.83025   -0.384779           
         O         O         0.92374   0.49847   0.73988   -0.391943           
         N         N         0.97055   0.61156   0.72765   -0.016418           
         N         N         0.03452   0.39006   0.76662   -0.009866           
         N         N         0.97722   0.65661   0.73704   -0.213964           
         N         N         0.02699   0.34585   0.74634   -0.214862           
         H         H         0.00609   0.66779   0.78042   0.242478  
         H         H         0.99411   0.33508   0.73299   0.236429  
         C         C         0.94293   0.68926   0.70147   0.429848  
         C         C         0.06412   0.31396   0.73009   0.428008  
         O         O         0.90793   0.67836   0.64869   -0.387341           
         O         O         0.10492   0.32426   0.72392   -0.369354           
         H         H         0.96288   0.40196   0.76060   0.089578  
         H         H         0.03892   0.59749   0.78296   0.094104  
         C         C         0.53732   -0.00013  0.72374   -0.045528           
         C         C         0.46605   -0.00022  0.71376   -0.045259           
         C         C         0.50253   0.96326   0.71165   0.273217  
         C         C         0.50099   0.03643   0.71930   0.275642  
         C         C         0.58475   0.99504   0.73751   -0.003548           
         C         C         0.41786   0.00475   0.71815   -0.008821           
         O         O         0.50372   0.92117   0.70684   -0.381773           
         O         O         0.49935   0.07858   0.72164   -0.385247           
         N         N         0.61049   0.02986   0.76629   -0.004495           
         N         N         0.39011   0.96832   0.74325   -0.009837           
         N         N         0.65544   0.02044   0.76793   -0.215206           
         N         N         0.34496   0.97691   0.74478   -0.213861           
         H         H         0.66846   0.98927   0.73512   0.238988  
         H         H         0.33365   0.01005   0.72142   0.239302  
         C         C         0.68569   0.05406   0.80919   0.416672  
         C         C         0.31209   0.94040   0.78626   0.421595  
         O         O         0.67108   0.09037   0.85830   -0.378325           
         O         O         0.32367   0.90124   0.83073   -0.375217           
         H         H         0.40428   0.04016   0.70333   0.094401  
         H         H         0.59995   0.96059   0.72441   0.091068 

