
##########################################################################
#               Crystallographic Information Format file
#               Produced by PyCifRW module
#
#  This is a CIF file.  CIF has been adopted by the International
#  Union of Crystallography as the standard for data archiving and
#  transmission.
#
#  For information on this file format, follow the CIF links at
#  http://www.iucr.org
##########################################################################

data_image0

_cell_length_a                          42.8402
_cell_length_b                          41.3476
_cell_length_c                          9.23621
_cell_angle_alpha                       90.2263
_cell_angle_beta                        95.7054
_cell_angle_gamma                       90.1875
_symmetry_space_group_name_H-M          'P 1'
_space_group_name_Hall                  'P 1'
loop_
  _atom_site_type_symbol
  _atom_site_label
  _atom_site_fract_x
  _atom_site_fract_y
  _atom_site_fract_z
  _atom_site_charge
         N         N         0.50670   0.45090   0.24798   -0.257163           
         N         N         0.49081   0.55168   0.22851   -0.255240           
         N         N         0.00842   0.95192   0.26849   -0.257054           
         N         N         0.99101   0.05169   0.24872   -0.256623           
         H         H         0.50351   0.47522   0.25970   0.275534  
         H         H         0.49469   0.52768   0.24900   0.275087  
         H         H         0.00501   0.97487   0.22986   0.278687  
         H         H         0.99272   0.02723   0.23516   0.274706  
         C         C         0.48316   0.42804   0.24494   0.183096  
         C         C         0.51399   0.57438   0.21544   0.181821  
         C         C         0.98535   0.93085   0.30226   0.186130  
         C         C         0.01526   0.07371   0.24925   0.182768  
         C         C         0.53474   0.43676   0.22186   0.182292  
         C         C         0.46149   0.56537   0.20259   0.181159  
         C         C         0.03777   0.93846   0.29846   0.180922  
         C         C         0.96384   0.06660   0.28199   0.183517  
         C         C         0.49694   0.39776   0.21083   -0.184834           
         C         C         0.49835   0.60393   0.17267   -0.193314           
         C         C         0.00111   0.90331   0.36773   -0.191431           
         C         C         0.00293   0.10416   0.29186   -0.185294           
         C         C         0.52810   0.40315   0.19401   -0.188866           
         C         C         0.46645   0.59842   0.16422   -0.191354           
         C         C         0.03303   0.90827   0.36882   -0.185540           
         C         C         0.97184   0.09977   0.31336   -0.187738           
         H         H         0.48431   0.37504   0.19971   0.135297  
         H         H         0.51023   0.62626   0.15072   0.134214  
         H         H         0.98944   0.88268   0.41029   0.133131  
         H         H         0.01628   0.12643   0.30433   0.135166  
         H         H         0.54509   0.38560   0.16485   0.133379  
         H         H         0.44786   0.61550   0.13449   0.130367  
         H         H         0.05158   0.89275   0.41631   0.136574  
         H         H         0.95579   0.11769   0.34814   0.134250  
         N         N         0.95305   0.99515   0.26655   -0.407180           
         N         N         0.04537   0.00760   0.23020   -0.411567           
         N         N         0.45228   0.49337   0.24479   -0.408825           
         N         N         0.54530   0.50925   0.24007   -0.407438           
         C         C         0.93827   0.96578   0.24190   0.187249  
         C         C         0.05728   0.03605   0.18255   0.193084  
         C         C         0.43836   0.46484   0.27980   0.194763  
         C         C         0.56051   0.53835   0.26635   0.191121  
         C         C         0.06601   0.98402   0.19556   0.187939  
         C         C         0.92972   0.01780   0.24966   0.191188  
         C         C         0.56834   0.48623   0.25740   0.190500  
         C         C         0.42973   0.51661   0.25391   0.192320  
         C         C         0.90498   0.97030   0.19595   -0.189431           
         C         C         0.08473   0.03007   0.10515   -0.187079           
         C         C         0.40683   0.47051   0.32134   -0.186815           
         C         C         0.59372   0.53331   0.31236   -0.192829           
         C         C         0.08975   0.99756   0.11019   -0.187022           
         C         C         0.89954   0.00269   0.20372   -0.189576           
         C         C         0.59868   0.50086   0.30468   -0.190273           
         C         C         0.40131   0.50271   0.30355   -0.189704           
         H         H         0.88824   0.95145   0.16172   0.124751  
         H         H         0.09757   0.04800   0.04974   0.115742  
         H         H         0.39145   0.45244   0.36067   0.125539  
         H         H         0.61069   0.55192   0.34688   0.124446  
         H         H         0.10690   0.98411   0.05622   0.125096  
         H         H         0.87753   0.01522   0.17828   0.127851  
         H         H         0.62044   0.48793   0.33115   0.128227  
         H         H         0.38046   0.51596   0.32437   0.126156  
         C         C         0.45179   0.43376   0.27098   -0.072309           
         C         C         0.54656   0.56919   0.24434   -0.078293           
         C         C         0.95269   0.93539   0.26938   -0.071026           
         C         C         0.04548   0.06734   0.20843   -0.074118           
         C         C         0.56408   0.45257   0.23239   -0.070971           
         C         C         0.43285   0.54980   0.22107   -0.075683           
         C         C         0.06519   0.95163   0.24657   -0.080468           
         C         C         0.93413   0.05152   0.27398   -0.078407           
         C         C         0.43176   0.40504   0.29018   0.087510  
         C         C         0.56739   0.59804   0.25575   0.083637  
         C         C         0.93276   0.90594   0.25687   0.080453  
         C         C         0.06642   0.09544   0.19157   0.087233  
         C         C         0.59224   0.43267   0.21630   0.084168  
         C         C         0.40412   0.56996   0.21321   0.084385  
         C         C         0.09295   0.93072   0.23906   0.081433  
         C         C         0.90628   0.07185   0.28970   0.086173  
         C         C         0.90451   0.90386   0.32233   -0.125391           
         C         C         0.09728   0.09559   0.26026   -0.128643           
         C         C         0.05647   0.12228   0.10565   -0.142075           
         C         C         0.94085   0.87992   0.16874   -0.134415           
         C         C         0.44149   0.38105   0.39264   -0.143505           
         C         C         0.56141   0.62409   0.34789   -0.138501           
         C         C         0.59459   0.59945   0.18194   -0.127071           
         C         C         0.40220   0.40149   0.21037   -0.129796           
         C         C         0.09004   0.89710   0.21380   -0.124355           
         C         C         0.90175   0.10169   0.21741   -0.135274           
         C         C         0.88333   0.06176   0.37961   -0.134512           
         C         C         0.12376   0.94366   0.25341   -0.119926           
         C         C         0.61415   0.44265   0.12105   -0.135234           
         C         C         0.37698   0.56099   0.12280   -0.121632           
         C         C         0.40287   0.59765   0.30122   -0.136494           
         C         C         0.59775   0.40340   0.29171   -0.135066           
         H         H         0.46416   0.38377   0.45594   0.101036  
         H         H         0.54065   0.62317   0.40662   0.104605  
         H         H         0.59903   0.58010   0.10659   0.113443  
         H         H         0.39469   0.41931   0.12797   0.113062  
         H         H         0.89849   0.92316   0.39487   0.113429  
         H         H         0.10510   0.07527   0.32884   0.118298  
         H         H         0.03288   0.12209   0.04996   0.103623  
         H         H         0.96252   0.88139   0.11677   0.109666  
         H         H         0.60984   0.46501   0.06070   0.106545  
         H         H         0.37795   0.53987   0.05279   0.111162  
         H         H         0.42334   0.60407   0.37507   0.103544  
         H         H         0.58180   0.39585   0.36977   0.111210  
         H         H         0.06682   0.88628   0.19630   0.108376  
         H         H         0.91848   0.10943   0.14332   0.109866  
         H         H         0.88685   0.03914   0.43873   0.107682  
         H         H         0.12715   0.96904   0.28201   0.117120  
         C         C         0.42194   0.35522   0.41862   -0.094805           
         C         C         0.58261   0.64956   0.37169   -0.096159           
         C         C         0.61578   0.62503   0.20499   -0.109191           
         C         C         0.38273   0.37547   0.23507   -0.105192           
         C         C         0.88439   0.87751   0.29520   -0.112143           
         C         C         0.11750   0.12148   0.24302   -0.107441           
         C         C         0.07684   0.14778   0.08548   -0.093440           
         C         C         0.92056   0.85383   0.13984   -0.095466           
         C         C         0.64003   0.42368   0.09899   -0.089755           
         C         C         0.34928   0.57854   0.12296   -0.090893           
         C         C         0.37535   0.61559   0.29993   -0.135358           
         C         C         0.62370   0.38444   0.27013   -0.111135           
         C         C         0.11625   0.87761   0.20417   -0.115396           
         C         C         0.87579   0.12086   0.23616   -0.105607           
         C         C         0.85736   0.08088   0.39833   -0.093809           
         C         C         0.14970   0.92472   0.23120   -0.100411           
         H         H         0.42887   0.33757   0.50269   0.121922  
         H         H         0.57870   0.66871   0.44880   0.117968  
         H         H         0.63698   0.62510   0.14925   0.109881  
         H         H         0.35984   0.37361   0.17333   0.109372  
         H         H         0.86242   0.87672   0.34487   0.110371  
         H         H         0.14126   0.12096   0.29681   0.108965  
         H         H         0.06962   0.16766   0.01313   0.121045  
         H         H         0.92602   0.83476   0.06500   0.120763  
         H         H         0.65617   0.43077   0.02090   0.119159  
         H         H         0.32824   0.57158   0.05379   0.135426  
         H         H         0.37446   0.63608   0.37371   0.095261  
         H         H         0.62714   0.36175   0.32845   0.106860  
         H         H         0.11322   0.85171   0.18582   0.111400  
         H         H         0.87311   0.14388   0.17988   0.107693  
         H         H         0.84033   0.07350   0.47173   0.121113  
         H         H         0.17294   0.93563   0.23585   0.122156  
         C         C         0.39220   0.35217   0.34064   -0.033576           
         C         C         0.61036   0.65011   0.30233   -0.039217           
         C         C         0.89187   0.85248   0.20136   -0.035421           
         C         C         0.10762   0.14775   0.15404   -0.029949           
         C         C         0.64507   0.39421   0.17283   -0.034417           
         C         C         0.34824   0.60605   0.21181   -0.042462           
         C         C         0.14628   0.89134   0.20757   -0.019289           
         C         C         0.85327   0.11078   0.32738   -0.035087           
         C         C         0.23232   0.77756   0.31531   0.066276  
         C         C         0.76899   0.22625   0.21891   0.066312  
         C         C         0.22879   0.74531   0.36050   -0.122780           
         C         C         0.77199   0.25605   0.14762   -0.131926           
         C         C         0.25105   0.72208   0.33622   -0.120241           
         C         C         0.75283   0.28203   0.17413   -0.124724           
         C         C         0.27817   0.73078   0.27031   0.066951  
         C         C         0.72971   0.27884   0.27161   0.063615  
         C         C         0.28232   0.76331   0.23098   -0.136832           
         C         C         0.72670   0.24906   0.34278   -0.129335           
         C         C         0.25960   0.78633   0.25133   -0.124602           
         C         C         0.74588   0.22310   0.31639   -0.126404           
         C         C         0.20748   0.80092   0.33223   0.009081  
         C         C         0.79013   0.19969   0.19259   0.001851  
         H         H         0.20807   0.73858   0.41297   0.118219  
         H         H         0.78961   0.25863   0.07120   0.117216  
         H         H         0.24797   0.69701   0.36745   0.127971  
         H         H         0.75537   0.30509   0.12020   0.116709  
         C         C         0.30171   0.70719   0.23905   -0.033947           
         C         C         0.70852   0.30521   0.29918   0.003197  
         H         H         0.30326   0.77017   0.18039   0.108720  
         H         H         0.70909   0.24651   0.41917   0.113255  
         H         H         0.26239   0.81128   0.21782   0.118634  
         H         H         0.74344   0.20008   0.37077   0.119115  
         N         N         0.20345   0.82469   0.24088   -0.128222           
         N         N         0.79665   0.17800   0.29239   -0.123344           
         N         N         0.29748   0.67647   0.25748   -0.091556           
         N         N         0.70168   0.32700   0.20023   -0.126826           
         N         N         0.17978   0.84566   0.26490   -0.243317           
         N         N         0.81695   0.15427   0.25904   -0.233427           
         N         N         0.32131   0.65673   0.22909   -0.245317           
         N         N         0.68137   0.35048   0.23610   -0.235770           
         H         H         0.17145   0.84652   0.36685   0.276947  
         H         H         0.82009   0.14913   0.15071   0.267941  
         C         C         0.17347   0.87107   0.17267   0.443398  
         C         C         0.82693   0.13193   0.36313   0.446976  
         C         C         0.31764   0.62302   0.21976   0.440677  
         C         C         0.67099   0.37295   0.13366   0.442689  
         O         O         0.18754   0.87662   0.06382   -0.485717           
         O         O         0.81595   0.13006   0.48294   -0.498421           
         H         H         0.34158   0.66636   0.19728   0.242556  
         H         H         0.67826   0.35469   0.34508   0.269492  
         O         O         0.29248   0.60901   0.22184   -0.417794           
         O         O         0.68117   0.37487   0.01221   -0.495010           
         H         H         0.32302   0.71663   0.19649   0.075006  
         H         H         0.69841   0.30549   0.40389   0.088641  
         C         C         0.22441   0.22904   0.27667   0.064543  
         C         C         0.77868   0.76972   0.27564   0.063879  
         C         C         0.25373   0.22462   0.35792   -0.129314           
         C         C         0.75220   0.77388   0.35301   -0.126723           
         C         C         0.27904   0.24458   0.33695   -0.125603           
         C         C         0.72597   0.75419   0.32522   -0.122445           
         C         C         0.27570   0.26995   0.23520   0.065648  
         C         C         0.72564   0.72937   0.22019   0.062281  
         C         C         0.24628   0.27457   0.15499   -0.129394           
         C         C         0.75218   0.72512   0.14329   -0.124806           
         C         C         0.22098   0.25460   0.17592   -0.122439           
         C         C         0.77843   0.74481   0.17107   -0.124061           
         C         C         0.19854   0.20698   0.29719   0.002798  
         C         C         0.80516   0.79176   0.30512   0.011353  
         H         H         0.25649   0.20525   0.43764   0.115121  
         H         H         0.75245   0.79286   0.43510   0.113143  
         H         H         0.30175   0.24096   0.39859   0.119510  
         H         H         0.70545   0.75752   0.38408   0.119332  
         C         C         0.30171   0.29153   0.21135   0.000745  
         C         C         0.69873   0.70784   0.19021   0.008463  
         H         H         0.24343   0.29402   0.07573   0.116587  
         H         H         0.75193   0.70618   0.06102   0.112929  
         H         H         0.19825   0.25825   0.11458   0.117908  
         H         H         0.79894   0.74149   0.11213   0.120407  
         N         N         0.17649   0.20221   0.19203   -0.125052           
         N         N         0.82424   0.79707   0.20681   -0.125953           
         N         N         0.32424   0.29657   0.31402   -0.123947           
         N         N         0.67969   0.70302   0.28915   -0.121824           
         N         N         0.15317   0.18135   0.22239   -0.238139           
         N         N         0.84812   0.81834   0.24841   -0.236275           
         N         N         0.34748   0.31694   0.27845   -0.236762           
         N         N         0.65506   0.68257   0.24893   -0.236918           
         H         H         0.14954   0.17687   0.33038   0.273082  
         H         H         0.85429   0.82201   0.35964   0.263825  
         C         C         0.12953   0.17383   0.11619   0.445179  
         C         C         0.86914   0.82630   0.15253   0.440771  
         C         C         0.37074   0.32621   0.38359   0.444840  
         C         C         0.63431   0.67538   0.34743   0.442081  
         O         O         0.12677   0.18652   0.99335   -0.494126           
         O         O         0.86893   0.81372   0.02934   -0.496982           
         H         H         0.35091   0.32051   0.16965   0.271971  
         H         H         0.64814   0.67910   0.13813   0.266852  
         O         O         0.37328   0.31505   0.50928   -0.495532           
         O         O         0.63581   0.68806   0.47087   -0.496948           
         H         H         0.30130   0.30346   0.10518   0.090354  
         H         H         0.69545   0.69618   0.08281   0.086854  
         H         H         0.19252   0.79741   0.42071   0.098133  
         H         H         0.19876   0.19465   0.40240   0.091280  
         H         H         0.80043   0.19918   0.08836   0.086345  
         H         H         0.80802   0.80361   0.41210   0.087862  
         N         N         0.50832   0.44772   0.74286   -0.256430           
         N         N         0.49232   0.54799   0.70790   -0.255456           
         N         N         0.00844   0.94911   0.77244   -0.255196           
         N         N         0.99359   0.04994   0.75436   -0.256138           
         H         H         0.50563   0.47217   0.75195   0.274114  
         H         H         0.49570   0.52403   0.73110   0.274549  
         H         H         0.00522   0.97346   0.75937   0.272205  
         H         H         0.99633   0.02557   0.74213   0.274447  
         C         C         0.48449   0.42522   0.74203   0.181833  
         C         C         0.51573   0.57039   0.69490   0.184250  
         C         C         0.98485   0.92656   0.78024   0.178340  
         C         C         0.01742   0.07244   0.75505   0.182268  
         C         C         0.53623   0.43302   0.71901   0.184310  
         C         C         0.46322   0.56223   0.68445   0.181682  
         C         C         0.03724   0.93410   0.77738   0.182432  
         C         C         0.96570   0.06473   0.77827   0.182114  
         C         C         0.49794   0.39455   0.71143   -0.187291           
         C         C         0.50047   0.60008   0.65134   -0.192470           
         C         C         -0.00010  0.89578   0.80083   -0.187193           
         C         C         0.00396   0.10319   0.78419   -0.185739           
         C         C         0.52920   0.39936   0.69472   -0.189954           
         C         C         0.46853   0.59508   0.64426   -0.191156           
         C         C         0.03159   0.90023   0.79575   -0.189530           
         C         C         0.97271   0.09844   0.80111   -0.190083           
         H         H         0.48500   0.37198   0.70241   0.136408  
         H         H         0.51263   0.62222   0.62904   0.133457  
         H         H         0.98778   0.87321   0.81527   0.134754  
         H         H         0.01695   0.12574   0.79242   0.135950  
         H         H         0.54597   0.38137   0.66761   0.134211  
         H         H         0.45015   0.61245   0.61552   0.129957  
         H         H         0.04950   0.88179   0.80214   0.135361  
         H         H         0.95588   0.11645   0.82749   0.133599  
         N         N         0.95427   0.99228   0.76597   -0.408798           
         N         N         0.04734   0.00618   0.74481   -0.407263           
         N         N         0.45378   0.49105   0.73555   -0.408126           
         N         N         0.54695   0.50535   0.72856   -0.410222           
         C         C         0.93861   0.96339   0.74133   0.191023  
         C         C         0.06242   0.03512   0.72819   0.192232  
         C         C         0.44008   0.46278   0.77498   0.192224  
         C         C         0.56208   0.53453   0.75356   0.191393  
         C         C         0.07004   0.98295   0.73881   0.191085  
         C         C         0.93148   0.01558   0.75007   0.191910  
         C         C         0.56996   0.48241   0.74967   0.193547  
         C         C         0.43150   0.51449   0.74727   0.190396  
         C         C         0.90532   0.96876   0.69913   -0.190926           
         C         C         0.09537   0.03000   0.70724   -0.186423           
         C         C         0.40902   0.46877   0.82132   -0.184788           
         C         C         0.59517   0.52970   0.80236   -0.190255           
         C         C         0.10027   0.99758   0.71692   -0.184855           
         C         C         0.90079   0.00129   0.70653   -0.190968           
         C         C         0.60020   0.49722   0.79756   -0.192618           
         C         C         0.40362   0.50098   0.80347   -0.189887           
         H         H         0.88805   0.95029   0.66671   0.123738  
         H         H         0.11224   0.04866   0.68841   0.124556  
         H         H         0.39393   0.45089   0.86418   0.126218  
         H         H         0.61197   0.54849   0.83662   0.124866  
         H         H         0.12208   0.98478   0.71060   0.127534  
         H         H         0.87913   0.01448   0.68202   0.127553  
         H         H         0.62194   0.48441   0.82627   0.129420  
         H         H         0.38316   0.51443   0.82818   0.125875  
         C         C         0.45324   0.43154   0.76757   -0.072396           
         C         C         0.54816   0.56521   0.72842   -0.076945           
         C         C         0.95234   0.93240   0.75829   -0.075950           
         C         C         0.04896   0.06619   0.73459   -0.071208           
         C         C         0.56568   0.44862   0.72863   -0.079534           
         C         C         0.43468   0.54746   0.71091   -0.073426           
         C         C         0.06590   0.94932   0.75629   -0.071391           
         C         C         0.93623   0.04928   0.77165   -0.075542           
         C         C         0.43259   0.40338   0.78783   0.085223  
         C         C         0.56852   0.59436   0.74512   0.084940  
         C         C         0.93142   0.90362   0.74404   0.084704  
         C         C         0.06933   0.09477   0.71538   0.088510  
         C         C         0.59385   0.42859   0.71604   0.085366  
         C         C         0.40669   0.56840   0.71219   0.085535  
         C         C         0.09308   0.92763   0.74309   0.090805  
         C         C         0.90826   0.06940   0.78875   0.084921  
         C         C         0.90503   0.90089   0.82272   -0.130350           
         C         C         0.09698   0.10054   0.80697   -0.131276           
         C         C         0.06173   0.11604   0.59866   -0.140530           
         C         C         0.93695   0.87869   0.64545   -0.136092           
         C         C         0.44116   0.37987   0.89421   -0.141258           
         C         C         0.56135   0.61955   0.83955   -0.137799           
         C         C         0.59599   0.59707   0.67413   -0.128738           
         C         C         0.40338   0.40028   0.70473   -0.128742           
         C         C         0.10859   0.92799   0.61582   -0.140880           
         C         C         0.90213   0.09816   0.71023   -0.133803           
         C         C         0.88700   0.05984   0.88782   -0.134350           
         C         C         0.10297   0.90528   0.85203   -0.142090           
         C         C         0.61631   0.43847   0.62328   -0.135199           
         C         C         0.37791   0.55953   0.63478   -0.125203           
         C         C         0.40785   0.59660   0.79821   -0.136094           
         C         C         0.59889   0.39931   0.79209   -0.134636           
         H         H         0.46360   0.38234   0.95961   0.100313  
         H         H         0.54040   0.61747   0.89651   0.107193  
         H         H         0.60137   0.57829   0.59772   0.112041  
         H         H         0.39685   0.41787   0.61994   0.113113  
         H         H         0.90077   0.91946   0.90206   0.112954  
         H         H         0.10294   0.08485   0.89965   0.105155  
         H         H         0.04045   0.11155   0.52696   0.099055  
         H         H         0.95688   0.88083   0.58197   0.101420  
         H         H         0.61240   0.46083   0.56251   0.107423  
         H         H         0.37711   0.53824   0.56489   0.112444  
         H         H         0.42972   0.60306   0.86191   0.105687  
         H         H         0.58259   0.39198   0.86894   0.109535  
         H         H         0.10086   0.94477   0.52954   0.102608  
         H         H         0.91766   0.10540   0.62984   0.109602  
         H         H         0.89188   0.03796   0.95100   0.105861  
         H         H         0.09167   0.90488   0.95200   0.096676  
         C         C         0.42068   0.35488   0.92087   -0.096664           
         C         C         0.58158   0.64569   0.86728   -0.095822           
         C         C         0.61618   0.62338   0.70092   -0.110984           
         C         C         0.38311   0.37494   0.72930   -0.105930           
         C         C         0.88438   0.87484   0.79951   -0.108479           
         C         C         0.11684   0.12609   0.78045   -0.106754           
         C         C         0.08169   0.14139   0.57072   -0.093455           
         C         C         0.91651   0.85265   0.62244   -0.098313           
         C         C         0.64228   0.41940   0.60428   -0.092298           
         C         C         0.35080   0.57727   0.64879   -0.098780           
         C         C         0.38097   0.61505   0.80852   -0.132579           
         C         C         0.62479   0.38014   0.77262   -0.105797           
         C         C         0.13284   0.90656   0.59782   -0.093376           
         C         C         0.87603   0.11694   0.73150   -0.111298           
         C         C         0.86098   0.07859   0.90942   -0.095420           
         C         C         0.12706   0.88358   0.83367   -0.104547           
         H         H         0.42661   0.33762   0.00783   0.122130  
         H         H         0.57680   0.66428   0.94568   0.119516  
         H         H         0.63757   0.62463   0.64685   0.109864  
         H         H         0.36052   0.37321   0.66482   0.109059  
         H         H         0.86379   0.87366   0.85925   0.107903  
         H         H         0.13836   0.12965   0.85143   0.106489  
         H         H         0.07647   0.15697   0.47680   0.117229  
         H         H         0.92022   0.83418   0.54188   0.119467  
         H         H         0.65891   0.42644   0.52844   0.122737  
         H         H         0.32842   0.56985   0.59211   0.132722  
         H         H         0.38194   0.63618   0.87946   0.100204  
         H         H         0.62782   0.35735   0.83035   0.106798  
         H         H         0.14433   0.90664   0.49824   0.097967  
         H         H         0.87206   0.13916   0.67003   0.107323  
         H         H         0.84524   0.07178   0.98961   0.123524  
         H         H         0.13352   0.86602   0.91825   0.095264  
         C         C         0.39137   0.35218   0.83884   -0.033014           
         C         C         0.60949   0.64771   0.79981   -0.039622           
         C         C         0.88967   0.85064   0.69761   -0.038514           
         C         C         0.10958   0.14664   0.66134   -0.036384           
         C         C         0.64671   0.38987   0.67784   -0.036882           
         C         C         0.35213   0.60510   0.73656   -0.040533           
         C         C         0.14236   0.88396   0.70640   -0.040885           
         C         C         0.85519   0.10748   0.83191   -0.037991           
         C         C         0.23671   0.77763   0.83520   0.071693  
         C         C         0.76842   0.22088   0.72739   0.063227  
         C         C         0.23903   0.74868   0.91594   -0.125559           
         C         C         0.77063   0.25024   0.65198   -0.127250           
         C         C         0.25902   0.72412   0.88031   -0.119951           
         C         C         0.75165   0.27627   0.67918   -0.124236           
         C         C         0.27796   0.72822   0.76521   0.063607  
         C         C         0.72953   0.27362   0.78167   0.064673  
         C         C         0.27609   0.75742   0.68648   -0.136169           
         C         C         0.72719   0.24419   0.85659   -0.127688           
         C         C         0.25555   0.78159   0.71989   -0.126708           
         C         C         0.74620   0.21815   0.82945   -0.125828           
         C         C         0.21444   0.80277   0.86751   0.004428  
         C         C         0.78965   0.19454   0.70003   0.005479  
         H         H         0.22482   0.74544   0.00622   0.111362  
         H         H         0.78757   0.25246   0.57220   0.113330  
         H         H         0.26058   0.70164   0.94140   0.120240  
         H         H         0.75349   0.29902   0.62188   0.115666  
         C         C         0.29971   0.70354   0.72576   -0.020828           
         C         C         0.70895   0.30048   0.80967   0.000234  
         H         H         0.29060   0.76079   0.59731   0.101578  
         H         H         0.71029   0.24199   0.93656   0.112705  
         H         H         0.25366   0.80395   0.65807   0.113136  
         H         H         0.74434   0.19542   0.88686   0.115135  
         N         N         0.20322   0.82104   0.76111   -0.120656           
         N         N         0.79709   0.17331   0.80081   -0.128459           
         N         N         0.30055   0.67500   0.78361   -0.096779           
         N         N         0.70260   0.32228   0.71025   -0.122414           
         N         N         0.18253   0.84466   0.79154   -0.230644           
         N         N         0.81758   0.14988   0.76611   -0.234351           
         N         N         0.32348   0.65501   0.74421   -0.251924           
         N         N         0.68306   0.34652   0.74526   -0.232199           
         H         H         0.18275   0.85399   0.89646   0.266365  
         H         H         0.82062   0.14518   0.65749   0.269215  
         C         C         0.16670   0.86014   0.67480   0.453096  
         C         C         0.82893   0.12833   0.87063   0.445889  
         C         C         0.32239   0.62169   0.76555   0.437421  
         C         C         0.67263   0.36850   0.64057   0.447640  
         O         O         0.17175   0.85375   0.54750   -0.507137           
         O         O         0.81918   0.12676   0.99319   -0.498428           
         H         H         0.34002   0.66370   0.68146   0.242047  
         H         H         0.68044   0.35192   0.85386   0.268473  
         O         O         0.29997   0.60724   0.80781   -0.425434           
         O         O         0.68279   0.36985   0.51885   -0.499856           
         H         H         0.31546   0.71020   0.64352   0.075219  
         H         H         0.69901   0.30129   0.91474   0.086429  
         C         C         0.22289   0.23231   0.77872   0.063592  
         C         C         0.77586   0.76997   0.78223   0.065705  
         C         C         0.25106   0.23023   0.87099   -0.127510           
         C         C         0.74915   0.77448   0.85761   -0.127128           
         C         C         0.27704   0.24861   0.84420   -0.128923           
         C         C         0.72296   0.75476   0.82915   -0.120488           
         C         C         0.27555   0.26991   0.72506   0.065022  
         C         C         0.72299   0.72969   0.72548   0.063612  
         C         C         0.24737   0.27202   0.63282   -0.127770           
         C         C         0.74969   0.72523   0.64998   -0.128418           
         C         C         0.22140   0.25363   0.65960   -0.127321           
         C         C         0.77587   0.74493   0.67846   -0.119098           
         C         C         0.19628   0.21187   0.80583   0.004742  
         C         C         0.80264   0.79161   0.81160   0.004857  
         H         H         0.25245   0.21393   0.96359   0.111424  
         H         H         0.74923   0.79361   0.93895   0.113561  
         H         H         0.29888   0.24691   0.91457   0.114127  
         H         H         0.70228   0.75810   0.88689   0.116683  
         C         C         0.30232   0.29007   0.69782   0.002174  
         C         C         0.69648   0.70777   0.69569   0.013025  
         H         H         0.24600   0.28830   0.54009   0.113827  
         H         H         0.74965   0.70603   0.56902   0.114438  
         H         H         0.19959   0.25531   0.58905   0.115346  
         H         H         0.79661   0.74152   0.62114   0.117354  
         N         N         0.17593   0.20389   0.69788   -0.125891           
         N         N         0.82175   0.79610   0.71270   -0.120383           
         N         N         0.32316   0.29735   0.80489   -0.125380           
         N         N         0.67710   0.70300   0.79322   -0.127027           
         N         N         0.15189   0.18437   0.73139   -0.232142           
         N         N         0.84605   0.81694   0.75181   -0.236352           
         N         N         0.34744   0.31642   0.77049   -0.231534           
         N         N         0.65325   0.68172   0.75197   -0.236851           
         H         H         0.14602   0.18293   0.83809   0.268852  
         H         H         0.85278   0.82090   0.86232   0.266544  
         C         C         0.13185   0.17189   0.61995   0.449945  
         C         C         0.86653   0.82466   0.65310   0.444622  
         C         C         0.36877   0.32728   0.88065   0.446556  
         C         C         0.63228   0.67383   0.84799   0.441682  
         O         O         0.13280   0.17994   0.49068   -0.505799           
         O         O         0.86550   0.81190   0.52989   -0.496178           
         H         H         0.35290   0.31812   0.66318   0.268248  
         H         H         0.64722   0.67786   0.64085   0.264822  
         O         O         0.36874   0.31828   0.00919   -0.501582           
         O         O         0.63263   0.68647   0.97120   -0.498340           
         H         H         0.30392   0.29891   0.58681   0.086112  
         H         H         0.69388   0.69548   0.58969   0.087367  
         H         H         0.20766   0.80502   0.97878   0.086401  
         H         H         0.19458   0.20325   0.91715   0.085812  
         H         H         0.79927   0.19389   0.59417   0.088748  
         H         H         0.80570   0.80376   0.91793   0.086658 

