
##########################################################################
#               Crystallographic Information Format file
#               Produced by PyCifRW module
#
#  This is a CIF file.  CIF has been adopted by the International
#  Union of Crystallography as the standard for data archiving and
#  transmission.
#
#  For information on this file format, follow the CIF links at
#  http://www.iucr.org
##########################################################################

data_image0

_cell_length_a                          33.5006
_cell_length_b                          33.6077
_cell_length_c                          8.086
_cell_angle_alpha                       104.488
_cell_angle_beta                        61.1628
_cell_angle_gamma                       120.018
_symmetry_space_group_name_H-M          'P 1'
_space_group_name_Hall                  'P 1'
loop_
  _atom_site_type_symbol
  _atom_site_label
  _atom_site_fract_x
  _atom_site_fract_y
  _atom_site_fract_z
  _atom_site_charge
         C         C         0.28735   0.65886   0.24631   0.030097  
         C         C         0.34072   0.62743   0.24873   0.029987  
         C         C         0.37056   0.71231   0.26389   0.029975  
         C         C         0.29406   0.62024   0.24824   0.031026  
         C         C         0.37800   0.67294   0.26162   0.027827  
         C         C         0.32642   0.70538   0.25103   0.027893  
         C         C         0.25515   0.57494   0.25080   -0.233131           
         C         C         0.42294   0.67980   0.26596   -0.221994           
         C         C         0.32066   0.74390   0.24307   -0.231905           
         C         C         0.21197   0.56951   0.24839   0.174007  
         C         C         0.42928   0.64186   0.25682   0.176362  
         C         C         0.35784   0.78710   0.25056   0.171600  
         C         C         0.20576   0.60743   0.24458   0.177728  
         C         C         0.39295   0.59734   0.24243   0.173184  
         C         C         0.40073   0.79384   0.26533   0.174433  
         C         C         0.24210   0.65173   0.24427   -0.225360           
         C         C         0.34918   0.58923   0.23700   -0.228116           
         C         C         0.40788   0.75768   0.27319   -0.232353           
         O         O         0.15926   0.59229   0.24287   -0.341068           
         O         O         0.40864   0.56585   0.23692   -0.340272           
         O         O         0.43216   0.84047   0.26659   -0.340884           
         B         B         0.13711   0.54402   0.24593   0.582044  
         B         B         0.45560   0.59234   0.24918   0.577582  
         B         B         0.40736   0.86199   0.25050   0.585799  
         O         O         0.16947   0.52937   0.24884   -0.339667           
         O         O         0.46920   0.63956   0.25906   -0.341505           
         O         O         0.36116   0.82935   0.24107   -0.338258           
         H         H         0.25863   0.54495   0.25592   0.135885  
         H         H         0.45190   0.71380   0.27661   0.135450  
         H         H         0.28878   0.74020   0.22601   0.135665  
         H         H         0.23549   0.68003   0.24260   0.135677  
         H         H         0.32247   0.55419   0.22326   0.136866  
         H         H         0.44145   0.76443   0.28643   0.134073  
         C         C         0.84734   0.44442   0.17960   -0.144398           
         C         C         0.55374   0.39194   0.22303   -0.145451           
         C         C         0.60621   0.15708   0.24751   -0.148295           
         C         C         0.79872   0.42265   0.18685   -0.125535           
         C         C         0.57715   0.36627   0.21119   -0.131388           
         C         C         0.63255   0.20466   0.24242   -0.126255           
         H         H         0.87323   0.47953   0.13043   0.121155  
         H         H         0.52065   0.37640   0.19242   0.118595  
         H         H         0.62388   0.13632   0.23770   0.120272  
         H         H         0.78742   0.44108   0.13838   0.104669  
         H         H         0.56213   0.33039   0.16835   0.106960  
         H         H         0.67153   0.22059   0.22626   0.105235  
         C         C         0.61673   0.45942   0.30368   -0.170968           
         C         C         0.53238   0.16108   0.28500   -0.169379           
         C         C         0.83202   0.37564   0.29040   -0.171717           
         C         C         0.63910   0.43320   0.29628   -0.119295           
         C         C         0.55886   0.20874   0.28214   -0.118824           
         C         C         0.78324   0.35421   0.29886   -0.127010           
         H         H         0.63178   0.49541   0.34599   0.105135  
         H         H         0.49301   0.14447   0.30417   0.109437  
         H         H         0.84337   0.35748   0.34037   0.105838  
         H         H         0.67065   0.44935   0.33613   0.104227  
         H         H         0.53917   0.22812   0.29811   0.103187  
         H         H         0.75785   0.31961   0.35432   0.104320  
         C         C         0.64321   0.35809   0.24854   0.079033  
         C         C         0.63777   0.28293   0.25742   0.065665  
         C         C         0.71379   0.35371   0.25171   0.080522  
         C         C         0.57330   0.43922   0.26749   0.204148  
         C         C         0.55588   0.13419   0.26561   0.200582  
         C         C         0.86525   0.42150   0.23016   0.192973  
         C         C         0.62019   0.38596   0.24884   0.058553  
         C         C         0.60972   0.23204   0.26002   0.058152  
         C         C         0.76521   0.37694   0.24721   0.058750  
         C         C         0.61683   0.30989   0.25499   -0.182269           
         C         C         0.68628   0.30564   0.25642   -0.184094           
         C         C         0.69161   0.37919   0.24692   -0.175687           
         H         H         0.71263   0.41634   0.24177   0.103209  
         H         H         0.57927   0.29325   0.25720   0.098538  
         H         H         0.70321   0.28574   0.26014   0.099691  
         N         N         0.54720   0.46164   0.27169   -0.283284           
         C         C         0.56797   0.50571   0.25633   0.064130  
         H         H         0.60732   0.52853   0.23971   0.061493  
         C         C         0.53992   0.52783   0.25603   0.067302  
         C         C         0.55910   0.57599   0.27086   -0.145266           
         C         C         0.53225   0.59710   0.27149   -0.059163           
         C         C         0.48600   0.57078   0.25408   -0.222497           
         C         C         0.46728   0.52250   0.23779   -0.045771           
         C         C         0.49353   0.50132   0.23941   -0.112686           
         H         H         0.59465   0.59656   0.28620   0.103253  
         H         H         0.54711   0.63432   0.28514   0.107538  
         H         H         0.43191   0.50187   0.22150   0.110372  
         H         H         0.47964   0.46424   0.22506   0.115084  
         N         N         0.53287   0.08630   0.26944   -0.294443           
         C         C         0.49561   0.06110   0.22147   0.066868  
         H         H         0.48056   0.07540   0.16941   0.072882  
         C         C         0.47257   0.01106   0.23014   0.064068  
         C         C         0.42570   0.98310   0.21871   -0.135333           
         C         C         0.40410   0.93543   0.22813   -0.050324           
         C         C         0.42929   0.91434   0.24437   -0.233452           
         C         C         0.47659   0.94277   0.25394   -0.048035           
         C         C         0.49770   0.99020   0.24842   -0.114594           
         H         H         0.40647   0.99893   0.20124   0.104028  
         H         H         0.36774   0.91415   0.21959   0.105976  
         H         H         0.49653   0.92708   0.26715   0.107034  
         H         H         0.53383   0.01245   0.25761   0.113126  
         N         N         0.91369   0.44779   0.22674   -0.290420           
         C         C         0.93786   0.42959   0.24177   0.069447  
         H         H         0.92312   0.39225   0.24876   0.062712  
         C         C         0.98743   0.45824   0.24606   0.073996  
         C         C         0.01422   0.43778   0.25410   -0.140895           
         C         C         0.06216   0.46469   0.25377   -0.048061           
         C         C         0.08457   0.51294   0.24582   -0.224750           
         C         C         0.05712   0.53317   0.24001   -0.060585           
         C         C         0.00944   0.50650   0.24014   -0.104458           
         H         H         0.99672   0.40050   0.26185   0.099714  
         H         H         0.08253   0.44857   0.26081   0.106471  
         H         H         0.07398   0.57043   0.23505   0.108589  
         H         H         0.98824   0.52183   0.23441   0.111355  
         C         C         0.28860   0.66033   0.74661   0.027982  
         C         C         0.34259   0.62979   0.75042   0.030228  
         C         C         0.37162   0.71450   0.76478   0.030228  
         C         C         0.29585   0.62207   0.74898   0.031149  
         C         C         0.37971   0.67547   0.76200   0.028318  
         C         C         0.32739   0.70707   0.75099   0.030068  
         C         C         0.25734   0.57655   0.75141   -0.230181           
         C         C         0.42475   0.68266   0.76661   -0.228025           
         C         C         0.32121   0.74529   0.74219   -0.234394           
         C         C         0.21369   0.57064   0.75155   0.172090  
         C         C         0.43134   0.64500   0.75961   0.180219  
         C         C         0.35808   0.78872   0.74971   0.175163  
         C         C         0.20682   0.60816   0.74775   0.179472  
         C         C         0.39502   0.60029   0.74767   0.174616  
         C         C         0.40070   0.79595   0.76794   0.172611  
         C         C         0.24310   0.65265   0.74481   -0.226211           
         C         C         0.35109   0.59185   0.74241   -0.230364           
         C         C         0.40819   0.76009   0.77676   -0.234603           
         O         O         0.15985   0.59239   0.74893   -0.341381           
         O         O         0.41076   0.56914   0.74537   -0.339971           
         O         O         0.43177   0.84266   0.76932   -0.340518           
         B         B         0.13824   0.54415   0.75213   0.579304  
         B         B         0.45790   0.59605   0.75642   0.577403  
         B         B         0.40721   0.86379   0.74901   0.586119  
         O         O         0.17115   0.53017   0.75488   -0.340466           
         O         O         0.47119   0.64312   0.76453   -0.341740           
         O         O         0.36140   0.83078   0.73713   -0.340064           
         H         H         0.26136   0.54675   0.75512   0.136106  
         H         H         0.45345   0.71675   0.77770   0.136928  
         H         H         0.28908   0.74097   0.72508   0.134505  
         H         H         0.23627   0.68066   0.74107   0.136316  
         H         H         0.32397   0.55673   0.73270   0.136787  
         H         H         0.44145   0.76717   0.79305   0.135173  
         C         C         0.84933   0.44445   0.68382   -0.143217           
         C         C         0.55966   0.39730   0.71474   -0.145628           
         C         C         0.59775   0.15941   0.80260   -0.146430           
         C         C         0.80074   0.42348   0.69163   -0.127111           
         C         C         0.58197   0.37117   0.70823   -0.129607           
         C         C         0.62455   0.20701   0.80055   -0.132054           
         H         H         0.87536   0.47985   0.63865   0.123519  
         H         H         0.52789   0.38250   0.67671   0.118559  
         H         H         0.60956   0.13846   0.83409   0.116346  
         H         H         0.78945   0.44290   0.64833   0.107430  
         H         H         0.56756   0.33550   0.66212   0.105977  
         H         H         0.65702   0.22279   0.83449   0.104674  
         C         C         0.62041   0.46390   0.80911   -0.173007           
         C         C         0.53821   0.16403   0.73086   -0.167489           
         C         C         0.83409   0.37401   0.78094   -0.172393           
         C         C         0.64175   0.43723   0.80689   -0.121123           
         C         C         0.56552   0.21165   0.72733   -0.123680           
         C         C         0.78516   0.35339   0.79116   -0.128310           
         H         H         0.63487   0.49966   0.85494   0.104114  
         H         H         0.50485   0.14809   0.70169   0.109133  
         H         H         0.84562   0.35448   0.82266   0.109420  
         H         H         0.67190   0.45267   0.85401   0.103724  
         H         H         0.55285   0.23124   0.69249   0.100477  
         H         H         0.75974   0.31828   0.84119   0.105641  
         C         C         0.64527   0.36154   0.75702   0.079672  
         C         C         0.63856   0.28543   0.75886   0.069011  
         C         C         0.71575   0.35511   0.75122   0.076898  
         C         C         0.57852   0.44430   0.76382   0.200915  
         C         C         0.55416   0.13676   0.76719   0.195495  
         C         C         0.86727   0.42037   0.72775   0.192330  
         C         C         0.62330   0.39018   0.75577   0.059576  
         C         C         0.60947   0.23462   0.76196   0.057669  
         C         C         0.76716   0.37736   0.74618   0.062183  
         C         C         0.61766   0.31339   0.76582   -0.180861           
         C         C         0.68802   0.30707   0.74890   -0.181616           
         C         C         0.69388   0.38160   0.75249   -0.174646           
         H         H         0.71526   0.41877   0.74871   0.102750  
         H         H         0.57895   0.29744   0.77947   0.101532  
         H         H         0.70563   0.28614   0.73693   0.100879  
         N         N         0.55286   0.46674   0.76413   -0.281847           
         C         C         0.57250   0.51092   0.75728   0.061925  
         H         H         0.61088   0.53425   0.75003   0.062077  
         C         C         0.54427   0.53274   0.75615   0.065349  
         C         C         0.56294   0.58086   0.77288   -0.142972           
         C         C         0.53571   0.60180   0.77522   -0.061333           
         C         C         0.48937   0.57521   0.75813   -0.223767           
         C         C         0.47142   0.52703   0.73834   -0.046232           
         C         C         0.49808   0.50608   0.73805   -0.112754           
         H         H         0.59849   0.60152   0.78820   0.101700  
         H         H         0.55033   0.63900   0.79051   0.108451  
         H         H         0.43629   0.50624   0.72049   0.110702  
         H         H         0.48451   0.46905   0.72126   0.116013  
         N         N         0.53092   0.08871   0.77278   -0.296839           
         C         C         0.49374   0.06286   0.72480   0.067325  
         H         H         0.47708   0.07625   0.67692   0.066108  
         C         C         0.47176   0.01288   0.73054   0.066599  
         C         C         0.42521   0.98469   0.71630   -0.137761           
         C         C         0.40390   0.93702   0.72390   -0.050374           
         C         C         0.42890   0.91608   0.74239   -0.235723           
         C         C         0.47588   0.94465   0.75459   -0.050096           
         C         C         0.49685   0.99210   0.74963   -0.114836           
         H         H         0.40595   0.00046   0.69881   0.102637  
         H         H         0.36800   0.91564   0.71195   0.106068  
         H         H         0.49565   0.92901   0.76940   0.107705  
         H         H         0.53270   0.01430   0.76099   0.111165  
         N         N         0.91585   0.44629   0.72337   -0.293518           
         C         C         0.93944   0.42831   0.74396   0.070421  
         H         H         0.92409   0.39115   0.75848   0.062620  
         C         C         0.98907   0.45722   0.74772   0.072456  
         C         C         0.01590   0.43718   0.75821   -0.141993           
         C         C         0.06363   0.46446   0.75943   -0.048295           
         C         C         0.08584   0.51267   0.75086   -0.224163           
         C         C         0.05818   0.53249   0.74369   -0.056786           
         C         C         0.01080   0.50548   0.74153   -0.106794           
         H         H         0.99891   0.39991   0.76522   0.099435  
         H         H         0.08385   0.44860   0.76928   0.105609  
         H         H         0.07461   0.56975   0.73978   0.107514  
         H         H         0.98954   0.52050   0.73404   0.112226 

