
##########################################################################
#               Crystallographic Information Format file
#               Produced by PyCifRW module
#
#  This is a CIF file.  CIF has been adopted by the International
#  Union of Crystallography as the standard for data archiving and
#  transmission.
#
#  For information on this file format, follow the CIF links at
#  http://www.iucr.org
##########################################################################

data_image0

_cell_length_a                          26.1805
_cell_length_b                          26.1995
_cell_length_c                          8.43644
_cell_angle_alpha                       118.507
_cell_angle_beta                        60.1855
_cell_angle_gamma                       119.916
_symmetry_space_group_name_H-M          'P 1'
_space_group_name_Hall                  'P 1'
loop_
  _atom_site_type_symbol
  _atom_site_label
  _atom_site_fract_x
  _atom_site_fract_y
  _atom_site_fract_z
  _atom_site_charge
         C         C         0.50435   0.39046   0.24425   -0.144710           
         C         C         0.53901   0.36088   0.22880   -0.120596           
         C         C         0.59937   0.39362   0.24282   0.065664  
         C         C         0.62323   0.45761   0.26857   -0.117970           
         C         C         0.58940   0.48724   0.28009   -0.170863           
         C         C         0.52890   0.45400   0.26651   0.207311  
         N         N         0.49055   0.47879   0.27572   -0.284994           
         C         C         0.40452   0.61435   0.26687   -0.250949           
         C         C         0.46788   0.64729   0.25333   -0.047665           
         C         C         0.37730   0.55358   0.27789   -0.042582           
         C         C         0.50328   0.61993   0.24599   -0.148942           
         C         C         0.41208   0.52619   0.27322   -0.111122           
         C         C         0.47576   0.55911   0.25602   0.076736  
         C         C         0.51434   0.53147   0.24539   0.068895  
         H         H         0.45755   0.36477   0.23506   0.114285  
         H         H         0.51861   0.31122   0.20469   0.102637  
         H         H         0.66900   0.48527   0.28460   0.099360  
         H         H         0.60939   0.53699   0.30462   0.104101  
         H         H         0.48907   0.69428   0.24570   0.108989  
         H         H         0.32822   0.52788   0.28937   0.106835  
         H         H         0.55248   0.64546   0.23319   0.100891  
         H         H         0.39167   0.47925   0.28056   0.112816  
         H         H         0.56499   0.55774   0.20676   0.058775  
         H         H         0.72224   0.43951   0.21304   0.099837  
         B         B         0.36707   0.64307   0.25799   0.712546  
         O         O         0.30543   0.60924   0.26333   -0.572085           
         C         C         0.63470   0.36316   0.24064   0.079954  
         C         C         0.69746   0.39411   0.23310   -0.175903           
         C         C         0.60378   0.12045   0.29702   -0.144718           
         C         C         0.63136   0.18190   0.30064   -0.131185           
         C         C         0.60622   0.20797   0.25627   0.056823  
         C         C         0.55134   0.16893   0.20789   -0.123263           
         C         C         0.52328   0.10760   0.20525   -0.170110           
         C         C         0.54876   0.08209   0.25089   0.195594  
         N         N         0.52504   0.02062   0.24829   -0.284191           
         C         C         0.39135   0.79546   0.22720   -0.240913           
         C         C         0.35593   0.82389   0.23681   -0.051737           
         C         C         0.45358   0.83139   0.22381   -0.045051           
         C         C         0.38114   0.88572   0.24497   -0.142743           
         C         C         0.47932   0.89292   0.23020   -0.122734           
         C         C         0.44314   0.92119   0.24240   0.062072  
         C         C         0.46810   0.98600   0.25219   0.060723  
         H         H         0.62332   0.10129   0.33456   0.114004  
         H         H         0.67271   0.21043   0.34269   0.101887  
         H         H         0.53194   0.18582   0.16225   0.098103  
         H         H         0.48302   0.07832   0.15750   0.108186  
         H         H         0.30798   0.79678   0.23818   0.104478  
         H         H         0.48131   0.81023   0.21907   0.106831  
         H         H         0.35340   0.90718   0.25128   0.104358  
         H         H         0.52701   0.92106   0.22966   0.112200  
         H         H         0.43517   0.00320   0.26483   0.066304  
         H         H         0.55652   0.27852   0.26542   0.102370  
         B         B         0.36176   0.72789   0.23147   0.714770  
         O         O         0.39468   0.70287   0.24564   -0.574201           
         C         C         0.63731   0.27277   0.25341   0.074844  
         C         C         0.60557   0.30272   0.25250   -0.173061           
         C         C         0.88182   0.50057   0.28257   -0.148541           
         C         C         0.81997   0.46722   0.28958   -0.125669           
         C         C         0.79443   0.40256   0.25129   0.060193  
         C         C         0.83413   0.37309   0.21048   -0.117772           
         C         C         0.89565   0.40629   0.20804   -0.174802           
         C         C         0.92091   0.47093   0.24451   0.199053  
         N         N         0.98244   0.50760   0.24081   -0.294115           
         C         C         0.20338   0.59565   0.25588   -0.246303           
         C         C         0.17279   0.53745   0.28626   -0.043733           
         C         C         0.16944   0.61894   0.23525   -0.049466           
         C         C         0.11055   0.50387   0.29621   -0.135936           
         C         C         0.10772   0.58536   0.24200   -0.114421           
         C         C         0.07743   0.52728   0.27308   0.064484  
         C         C         0.01249   0.49118   0.28165   0.078380  
         H         H         0.90119   0.55027   0.30764   0.121867  
         H         H         0.79103   0.49210   0.32334   0.103465  
         H         H         0.81739   0.32307   0.17544   0.106373  
         H         H         0.92521   0.38191   0.17322   0.108778  
         H         H         0.19792   0.51923   0.30594   0.104984  
         H         H         0.19257   0.66400   0.21245   0.102395  
         H         H         0.08698   0.45942   0.32323   0.102777  
         H         H         0.08174   0.60271   0.22302   0.111924  
         H         H         0.99060   0.44989   0.32779   0.064662  
         H         H         0.72314   0.28530   0.26624   0.102555  
         B         B         0.27212   0.63352   0.24806   0.722356  
         O         O         0.30109   0.69240   0.22695   -0.574319           
         C         C         0.72962   0.36740   0.24697   0.063924  
         C         C         0.69898   0.30647   0.25469   -0.185377           
         C         C         0.50168   0.39384   0.79061   -0.146523           
         C         C         0.53449   0.36498   0.78863   -0.119058           
         C         C         0.59969   0.39160   0.74968   0.062735  
         C         C         0.63016   0.44900   0.71345   -0.122099           
         C         C         0.59756   0.47855   0.71772   -0.176669           
         C         C         0.53221   0.45145   0.75667   0.206649  
         N         N         0.49485   0.47571   0.75872   -0.288203           
         C         C         0.40666   0.61162   0.76219   -0.250088           
         C         C         0.46836   0.64641   0.76352   -0.046812           
         C         C         0.38133   0.54970   0.76189   -0.046105           
         C         C         0.50312   0.62060   0.76635   -0.147112           
         C         C         0.41588   0.52351   0.76294   -0.105017           
         C         C         0.47734   0.55892   0.76664   0.074973  
         C         C         0.51462   0.53328   0.77153   0.069913  
         H         H         0.45134   0.37295   0.82051   0.117453  
         H         H         0.50852   0.32144   0.82140   0.101561  
         H         H         0.68080   0.47018   0.67563   0.102447  
         H         H         0.62340   0.52183   0.68292   0.104960  
         H         H         0.48865   0.69409   0.76274   0.106187  
         H         H         0.33373   0.52242   0.76027   0.109189  
         H         H         0.55049   0.64810   0.77013   0.099051  
         H         H         0.39671   0.47587   0.76252   0.113146  
         H         H         0.56011   0.56631   0.78835   0.053871  
         H         H         0.71718   0.44188   0.76434   0.103011  
         B         B         0.36793   0.63995   0.75783   0.709966  
         O         O         0.30685   0.60484   0.75759   -0.574314           
         C         C         0.63484   0.36075   0.74616   0.081674  
         C         C         0.69610   0.39299   0.75109   -0.178011           
         C         C         0.61014   0.11007   0.73634   -0.145528           
         C         C         0.63922   0.17128   0.73648   -0.126196           
         C         C         0.60719   0.20381   0.74897   0.060471  
         C         C         0.54344   0.17152   0.76647   -0.122932           
         C         C         0.51405   0.11012   0.76504   -0.169950           
         C         C         0.54731   0.07761   0.74626   0.200847  
         N         N         0.52201   0.01687   0.75091   -0.287709           
         C         C         0.38957   0.79281   0.73793   -0.244433           
         C         C         0.35786   0.81736   0.71359   -0.053702           
         C         C         0.44930   0.83109   0.75498   -0.043354           
         C         C         0.38476   0.87733   0.70301   -0.138409           
         C         C         0.47600   0.89136   0.74829   -0.123920           
         C         C         0.44417   0.91525   0.72158   0.063916  
         C         C         0.47180   0.97784   0.70876   0.071275  
         H         H         0.63506   0.08617   0.73175   0.120791  
         H         H         0.68777   0.19416   0.72925   0.106112  
         H         H         0.51588   0.19452   0.78043   0.104682  
         H         H         0.46473   0.08749   0.78036   0.109083  
         H         H         0.31179   0.78837   0.70013   0.105969  
         H         H         0.47418   0.81287   0.77552   0.105001  
         H         H         0.36050   0.89512   0.67833   0.101888  
         H         H         0.52180   0.92125   0.76266   0.113022  
         H         H         0.44815   0.98901   0.65849   0.065125  
         H         H         0.56082   0.27253   0.73184   0.100021  
         B         B         0.36030   0.72551   0.74363   0.716295  
         O         O         0.39370   0.70096   0.75815   -0.572775           
         C         C         0.63869   0.26861   0.74446   0.068421  
         C         C         0.60740   0.29853   0.74134   -0.178236           
         C         C         0.89170   0.48800   0.70574   -0.153265           
         C         C         0.83136   0.45441   0.69777   -0.130681           
         C         C         0.79538   0.39886   0.74582   0.058059  
         C         C         0.82350   0.37813   0.79852   -0.124655           
         C         C         0.88416   0.41070   0.80259   -0.170655           
         C         C         0.91956   0.46671   0.75734   0.191776  
         N         N         0.98052   0.50398   0.76079   -0.294438           
         C         C         0.20391   0.59084   0.75353   -0.246763           
         C         C         0.17683   0.52918   0.75525   -0.049724           
         C         C         0.16614   0.61719   0.76460   -0.050383           
         C         C         0.11458   0.49504   0.76636   -0.141757           
         C         C         0.10407   0.58344   0.77545   -0.111753           
         C         C         0.07760   0.52166   0.77527   0.070448  
         C         C         0.01371   0.48389   0.77545   0.072635  
         H         H         0.91924   0.53067   0.66776   0.119019  
         H         H         0.81289   0.47121   0.64867   0.097730  
         H         H         0.79659   0.33674   0.84374   0.101804  
         H         H         0.90303   0.39333   0.84826   0.099978  
         H         H         0.20483   0.50845   0.75097   0.109459  
         H         H         0.18631   0.66499   0.76470   0.103754  
         H         H         0.09379   0.44760   0.76954   0.102071  
         H         H         0.07484   0.60323   0.78218   0.112450  
         H         H         0.99703   0.43692   0.78188   0.061737  
         H         H         0.72725   0.27955   0.73666   0.101617  
         B         B         0.27254   0.62929   0.74696   0.716703  
         O         O         0.30025   0.68892   0.73325   -0.573009           
         C         C         0.73043   0.36408   0.74407   0.074092  
         C         C         0.70101   0.30190   0.74065   -0.187416 

