
##########################################################################
#               Crystallographic Information Format file
#               Produced by PyCifRW module
#
#  This is a CIF file.  CIF has been adopted by the International
#  Union of Crystallography as the standard for data archiving and
#  transmission.
#
#  For information on this file format, follow the CIF links at
#  http://www.iucr.org
##########################################################################

data_image0

_cell_length_a                          17.4093
_cell_length_b                          18.5292
_cell_length_c                          8.082
_cell_angle_alpha                       64.8588
_cell_angle_beta                        103.137
_cell_angle_gamma                       113.675
_symmetry_space_group_name_H-M          'P 1'
_space_group_name_Hall                  'P 1'
loop_
  _atom_site_type_symbol
  _atom_site_label
  _atom_site_fract_x
  _atom_site_fract_y
  _atom_site_fract_z
  _atom_site_charge
         C         C         0.42685   0.69077   0.22476   0.059344  
         C         C         0.38718   0.61119   0.20801   -0.168009           
         C         C         0.29041   0.68905   0.25865   0.061033  
         C         C         0.37788   0.72930   0.24995   -0.105116           
         C         C         0.29980   0.57008   0.21722   0.058007  
         C         C         0.25192   0.60959   0.24291   -0.141417           
         C         C         0.51839   0.73080   0.21979   0.068431  
         C         C         0.26007   0.48655   0.20371   0.075479  
         C         C         0.23767   0.72858   0.28016   0.081566  
         N         N         0.55670   0.80382   0.23490   -0.283774           
         N         N         0.26805   0.80217   0.29317   -0.283550           
         N         N         0.18033   0.44602   0.21540   -0.279018           
         C         C         0.70098   0.81120   0.20967   -0.167085           
         C         C         0.78704   0.85451   0.21719   -0.126118           
         C         C         0.24674   0.90845   0.35487   -0.146933           
         C         C         0.19698   0.95227   0.35031   -0.128741           
         C         C         0.06854   0.33335   0.13422   -0.157070           
         C         C         0.03326   0.24946   0.14517   -0.119808           
         C         C         0.18808   0.30308   0.33146   -0.178057           
         C         C         0.15151   0.21895   0.34424   -0.123541           
         C         C         0.12836   0.81825   0.22770   -0.172336           
         C         C         0.07922   0.86232   0.22308   -0.126222           
         C         C         0.67883   0.91790   0.26972   -0.143830           
         C         C         0.76518   0.96043   0.27942   -0.129375           
         H         H         0.67764   0.75475   0.17607   0.106998  
         H         H         0.82787   0.83076   0.18684   0.103870  
         H         H         0.31193   0.92450   0.40931   0.125007  
         H         H         0.03655   0.37843   0.05147   0.116764  
         H         H         0.24641   0.32323   0.41109   0.107910  
         H         H         0.18224   0.17349   0.43310   0.104016  
         H         H         0.10243   0.76966   0.16901   0.107107  
         H         H         0.63513   0.94085   0.29243   0.121283  
         H         H         0.22388   0.00233   0.40500   0.105005  
         H         H         0.97390   0.22934   0.06832   0.107593  
         H         H         0.01528   0.84689   0.16196   0.102390  
         H         H         0.78855   0.01690   0.31283   0.108388  
         C         C         0.05683   0.97412   0.28069   0.076352  
         C         C         0.03683   0.10086   0.26346   0.081292  
         C         C         0.91409   0.97478   0.26139   0.072406  
         C         C         0.21322   0.84006   0.29537   0.192725  
         C         C         0.14738   0.36210   0.22423   0.203718  
         C         C         0.64466   0.84191   0.23699   0.192957  
         C         C         0.11185   0.92992   0.28522   0.056004  
         C         C         0.07375   0.19007   0.25123   0.055239  
         C         C         0.82193   0.92993   0.25343   0.058330  
         C         C         0.08940   0.05715   0.27823   -0.180510           
         C         C         0.94946   0.05878   0.25523   -0.181674           
         C         C         0.96911   0.93389   0.27464   -0.185496           
         H         H         0.94314   0.86859   0.28214   0.098945  
         H         H         0.15687   0.09022   0.27911   0.101541  
         H         H         0.90913   0.09258   0.24604   0.102497  
         H         H         0.30175   0.45984   0.18266   0.064046  
         H         H         0.55100   0.69302   0.20680   0.063615  
         H         H         0.42525   0.58143   0.18754   0.101873  
         H         H         0.40794   0.79041   0.26485   0.119187  
         H         H         0.18425   0.57733   0.25079   0.112654  
         H         H         0.16992   0.69136   0.28264   0.065196  
         C         C         0.42110   0.66770   0.72384   0.055683  
         C         C         0.38269   0.58514   0.72139   -0.176803           
         C         C         0.28398   0.66816   0.74227   0.061724  
         C         C         0.37115   0.70887   0.73346   -0.103616           
         C         C         0.29519   0.54434   0.72672   0.058677  
         C         C         0.24628   0.58680   0.73622   -0.149854           
         C         C         0.51253   0.70789   0.72402   0.069753  
         C         C         0.25530   0.45824   0.72682   0.074086  
         C         C         0.23069   0.70770   0.76112   0.080821  
         N         N         0.54968   0.78378   0.72527   -0.283745           
         N         N         0.26045   0.78119   0.77517   -0.279591           
         N         N         0.17458   0.42197   0.71847   -0.274905           
         C         C         0.69373   0.79097   0.70126   -0.173581           
         C         C         0.77977   0.83394   0.70984   -0.123056           
         C         C         0.23828   0.88467   0.84495   -0.147942           
         C         C         0.18835   0.92807   0.84229   -0.124462           
         C         C         0.06909   0.31337   0.61709   -0.161734           
         C         C         0.03357   0.22997   0.62430   -0.124305           
         C         C         0.17416   0.27478   0.85646   -0.182934           
         C         C         0.13913   0.19182   0.86038   -0.130120           
         C         C         0.12034   0.79601   0.71290   -0.174634           
         C         C         0.07124   0.84002   0.70906   -0.127986           
         C         C         0.67166   0.89758   0.76177   -0.143417           
         C         C         0.75820   0.93968   0.77338   -0.123929           
         H         H         0.67016   0.73486   0.66643   0.108142  
         H         H         0.82051   0.81004   0.67972   0.101599  
         H         H         0.30326   0.90026   0.90048   0.126486  
         H         H         0.04485   0.36256   0.51809   0.120384  
         H         H         0.22536   0.29135   0.95497   0.107426  
         H         H         0.16486   0.14360   0.95848   0.107144  
         H         H         0.09488   0.74865   0.65098   0.104633  
         H         H         0.62813   0.92084   0.78412   0.120776  
         H         H         0.21468   0.97722   0.89972   0.108036  
         H         H         0.98027   0.21291   0.53025   0.105378  
         H         H         0.00738   0.82471   0.64762   0.105535  
         H         H         0.78144   0.99586   0.80811   0.108505  
         C         C         0.04980   0.95260   0.76687   0.080543  
         C         C         0.03142   0.07908   0.75277   0.082177  
         C         C         0.90732   0.95391   0.75377   0.070631  
         C         C         0.20504   0.81778   0.78066   0.192225  
         C         C         0.14064   0.33735   0.73096   0.200939  
         C         C         0.63746   0.82177   0.72854   0.193140  
         C         C         0.10378   0.90711   0.77271   0.053840  
         C         C         0.06826   0.16759   0.74550   0.053674  
         C         C         0.81494   0.90915   0.74727   0.056038  
         C         C         0.08363   0.03600   0.76260   -0.182511           
         C         C         0.94381   0.03782   0.74829   -0.178064           
         C         C         0.96200   0.91306   0.76394   -0.187213           
         H         H         0.93577   0.84785   0.77178   0.098395  
         H         H         0.15115   0.06922   0.76225   0.105093  
         H         H         0.90539   0.07245   0.74570   0.105487  
         H         H         0.29756   0.42597   0.73333   0.064844  
         H         H         0.54679   0.66866   0.72714   0.060987  
         H         H         0.42214   0.55350   0.71416   0.102848  
         H         H         0.40030   0.77211   0.73809   0.120078  
         H         H         0.17859   0.55443   0.74181   0.111339  
         H         H         0.16331   0.66951   0.76489   0.066247 

