
##########################################################################
#               Crystallographic Information Format file
#               Produced by PyCifRW module
#
#  This is a CIF file.  CIF has been adopted by the International
#  Union of Crystallography as the standard for data archiving and
#  transmission.
#
#  For information on this file format, follow the CIF links at
#  http://www.iucr.org
##########################################################################

data_image0

_cell_length_a                          15.0964
_cell_length_b                          15.1247
_cell_length_c                          7.8696
_cell_angle_alpha                       105.277
_cell_angle_beta                        106.509
_cell_angle_gamma                       120.146
_symmetry_space_group_name_H-M          'P 1'
_space_group_name_Hall                  'P 1'
loop_
  _atom_site_type_symbol
  _atom_site_label
  _atom_site_fract_x
  _atom_site_fract_y
  _atom_site_fract_z
  _atom_site_charge
         N         N         0.05812   0.53784   0.25794   -0.082512           
         N         N         0.46970   0.51507   0.23717   -0.080847           
         N         N         0.49250   0.95091   0.24654   -0.198045           
         N         N         0.95789   0.46224   0.25859   -0.179090           
         N         N         0.54615   0.49136   0.23735   -0.196235           
         N         N         0.51663   0.05170   0.24971   -0.070272           
         C         C         0.13076   0.51374   0.24879   0.093348  
         C         C         0.49107   0.61111   0.23445   0.084603  
         C         C         0.39747   0.88085   0.25317   0.080860  
         C         C         0.88871   0.49016   0.26110   0.067579  
         C         C         0.52119   0.39683   0.24789   0.088890  
         C         C         0.61380   0.12577   0.24907   0.094981  
         H         H         0.10910   0.43220   0.24373   0.123639  
         H         H         0.57121   0.66886   0.23200   0.120317  
         H         H         0.33749   0.90035   0.26130   0.115418  
         H         H         0.90891   0.57041   0.26116   0.118218  
         H         H         0.44248   0.33845   0.25566   0.112100  
         H         H         0.67112   0.10256   0.24714   0.122456  
         H         H         0.08792   0.61999   0.26594   0.258142  
         H         H         0.38939   0.46277   0.23839   0.261823  
         H         H         0.54605   0.88351   0.23967   0.304183  
         H         H         0.88694   0.33841   0.24768   0.303887  
         H         H         0.67341   0.54826   0.25130   0.305549  
         H         H         0.46524   0.08037   0.25339   0.263827  
         C         C         0.30778   0.55768   0.23934   0.348254  
         C         C         0.23285   0.59020   0.24653   -0.258802           
         C         C         0.44189   0.74305   0.24063   0.309877  
         C         C         0.41418   0.63718   0.23654   -0.227088           
         C         C         0.26292   0.69950   0.25606   0.338724  
         C         C         0.36904   0.77481   0.24920   -0.245076           
         C         C         0.70518   0.44190   0.25739   0.303776  
         C         C         0.78209   0.41325   0.25977   -0.226756           
         C         C         0.56397   0.25951   0.25244   0.347700  
         C         C         0.59793   0.36776   0.25185   -0.227903           
         C         C         0.74822   0.30581   0.25293   0.306815  
         C         C         0.64239   0.23007   0.25177   -0.235470           
         O         O         0.28224   0.46324   0.23845   -0.475706           
         O         O         0.54122   0.81306   0.23883   -0.410316           
         O         O         0.19879   0.72953   0.27108   -0.477391           
         O         O         0.73940   0.54333   0.26042   -0.403579           
         O         O         0.46933   0.19209   0.25257   -0.468487           
         O         O         0.81573   0.27326   0.24770   -0.405851           
         N         N         0.04743   0.54865   0.76122   -0.173915           
         N         N         0.44484   0.49964   0.74260   -0.176902           
         N         N         0.49145   0.94794   0.75394   -0.185446           
         N         N         0.94717   0.47208   0.76036   -0.087482           
         N         N         0.52247   0.47760   0.74497   -0.097631           
         N         N         0.51420   0.04788   0.75440   -0.093632           
         C         C         0.11228   0.51622   0.74897   0.067945  
         C         C         0.47090   0.59503   0.73699   0.073175  
         C         C         0.39327   0.87814   0.75034   0.078782  
         C         C         0.87163   0.49272   0.76332   0.090585  
         C         C         0.50224   0.38137   0.74664   0.095566  
         C         C         0.61000   0.12438   0.75146   0.087957  
         H         H         0.08654   0.43259   0.74018   0.115847  
         H         H         0.55053   0.65344   0.73345   0.112192  
         H         H         0.33330   0.89914   0.74605   0.117088  
         H         H         0.89124   0.57339   0.76769   0.122503  
         H         H         0.42143   0.31994   0.74349   0.119061  
         H         H         0.67107   0.10604   0.75000   0.119035  
         H         H         0.12329   0.67528   0.77176   0.310137  
         H         H         0.31722   0.44561   0.73934   0.309965  
         H         H         0.54127   0.87124   0.74249   0.313694  
         H         H         0.92024   0.39119   0.75556   0.255376  
         H         H         0.60410   0.53197   0.74891   0.256290  
         H         H         0.46051   0.07374   0.75760   0.260507  
         C         C         0.28991   0.55555   0.73910   0.299100  
         C         C         0.21867   0.58994   0.74590   -0.223200           
         C         C         0.42964   0.73347   0.74126   0.296715  
         C         C         0.39583   0.62659   0.73754   -0.209603           
         C         C         0.25635   0.69876   0.75385   0.294983  
         C         C         0.36070   0.77082   0.74905   -0.220786           
         C         C         0.68879   0.44080   0.75527   0.348555  
         C         C         0.76856   0.41313   0.75900   -0.251808           
         C         C         0.55232   0.25136   0.75273   0.357250  
         C         C         0.58135   0.35865   0.75164   -0.239542           
         C         C         0.74125   0.30479   0.75114   0.346392  
         C         C         0.63330   0.22599   0.75090   -0.252993           
         O         O         0.25440   0.45395   0.73707   -0.405782           
         O         O         0.53016   0.79862   0.73853   -0.407030           
         O         O         0.19360   0.73672   0.76694   -0.405333           
         O         O         0.71253   0.53389   0.75310   -0.472069           
         O         O         0.45907   0.18201   0.75495   -0.472158           
         O         O         0.80926   0.27894   0.74547   -0.478926 

