
##########################################################################
#               Crystallographic Information Format file
#               Produced by PyCifRW module
#
#  This is a CIF file.  CIF has been adopted by the International
#  Union of Crystallography as the standard for data archiving and
#  transmission.
#
#  For information on this file format, follow the CIF links at
#  http://www.iucr.org
##########################################################################

data_image0

_cell_length_a                          34.5772
_cell_length_b                          34.5951
_cell_length_c                          8.14898
_cell_angle_alpha                       124.674
_cell_angle_beta                        70.0208
_cell_angle_gamma                       119.909
_symmetry_space_group_name_H-M          'P 1'
_space_group_name_Hall                  'P 1'
loop_
  _atom_site_type_symbol
  _atom_site_label
  _atom_site_fract_x
  _atom_site_fract_y
  _atom_site_fract_z
  _atom_site_charge
         H         H         0.69053   0.82021   0.01357   0.078076  
         C         C         0.72558   0.82694   0.00352   0.047983  
         N         N         0.75749   0.86791   0.00186   -0.174589           
         N         N         0.74087   0.89845   0.01077   -0.184914           
         H         H         0.80789   0.94752   0.01258   0.085691  
         C         C         0.77304   0.94019   0.01550   0.057519  
         C         C         0.76443   0.97797   0.02034   0.070624  
         C         C         0.72061   0.97185   0.02667   -0.132044           
         H         H         0.69334   0.93923   0.03925   0.105410  
         C         C         0.66678   0.99862   0.01140   0.071261  
         H         H         0.63600   0.91970   0.94363   0.108820  
         C         C         0.63049   0.95134   0.97188   -0.126236           
         C         C         0.58757   0.94418   0.96618   -0.126028           
         H         H         0.55996   0.90746   0.93753   0.105193  
         C         C         0.57913   0.98356   0.99550   0.059440  
         C         C         0.53389   0.97453   0.98843   0.044806  
         H         H         0.50706   0.93777   0.97010   0.081930  
         N         N         0.47879   0.99124   0.99572   -0.185800           
         H         H         0.39350   0.94093   0.98710   0.111085  
         C         C         0.38683   0.96867   0.98812   -0.101184           
         C         C         0.34334   0.96127   0.99059   -0.133979           
         H         H         0.31618   0.92684   0.99021   0.105374  
         C         C         0.28759   0.98870   0.99294   0.063994  
         H         H         0.25552   0.91539   0.98554   0.103004  
         C         C         0.25059   0.94438   0.98756   -0.167866           
         C         C         0.20654   0.93675   0.99056   0.063751  
         C         C         0.19874   0.97390   -0.00224  -0.156866           
         H         H         0.16448   0.96770   -0.00012  0.116526  
         H         H         0.17815   0.86428   0.99288   0.080737  
         C         C         0.16996   0.89090   0.99138   0.044262  
         N         N         0.12853   0.88149   0.99270   -0.175802           
         N         N         0.09927   0.83607   -0.00299  -0.178833           
         H         H         0.04989   0.85477   0.00520   0.087201  
         C         C         0.05785   0.82778   0.00532   0.054142  
         C         C         0.02083   0.78317   0.01436   0.060884  
         C         C         0.02805   0.74624   0.01210   -0.137807           
         H         H         0.06250   0.75333   0.00957   0.108207  
         C         C         0.00038   0.66253   0.00197   0.075900  
         H         H         0.07188   0.69270   0.92940   0.110313  
         C         C         0.04364   0.66303   0.95814   -0.131282           
         C         C         0.05099   0.62549   0.94658   -0.122396           
         H         H         0.08484   0.62712   0.91373   0.102985  
         C         C         0.01538   0.58532   0.97584   0.066425  
         C         C         0.02382   0.54747   0.96963   0.049093  
         H         H         0.05859   0.55200   0.94783   0.074319  
         N         N         0.00715   0.47898   0.98841   -0.179823           
         H         H         0.05417   0.44543   0.01730   0.109257  
         C         C         0.02684   0.40972   0.00370   -0.103536           
         C         C         0.03424   0.37315   -0.00198  -0.125771           
         H         H         0.06813   0.38134   0.00999   0.102918  
         C         C         0.00746   0.28778   0.97398   0.073876  
         H         H         0.07986   0.32578   0.95647   0.103216  
         C         C         0.05123   0.29323   0.96462   -0.157006           
         C         C         0.05960   0.25766   0.96557   0.068157  
         C         C         0.02349   0.21446   0.97140   -0.152335           
         H         H         0.03016   0.18732   0.97478   0.113780  
         H         H         0.13244   0.30053   0.95301   0.084561  
         C         C         0.10557   0.26766   0.96836   0.043236  
         N         N         0.11491   0.23939   0.99305   -0.183461           
         N         N         0.16090   0.25624   0.99576   -0.193351           
         H         H         0.14203   0.19486   0.03667   0.089279  
         C         C         0.16940   0.22731   0.02044   0.058675  
         C         C         0.21498   0.23599   0.02275   0.065486  
         C         C         0.25159   0.27931   0.01962   -0.140513           
         H         H         0.24403   0.30654   0.02197   0.107627  
         C         C         0.33412   0.33154   0.00081   0.066353  
         H         H         0.29452   0.36029   0.97448   0.110714  
         C         C         0.32779   0.36656   0.98543   -0.134660           
         C         C         0.36367   0.40932   0.97985   -0.121395           
         H         H         0.35777   0.43522   0.96432   0.106257  
         C         C         0.40766   0.41918   0.99061   0.054253  
         C         C         0.44453   0.46426   0.98618   0.041070  
         H         H         0.43746   0.48940   0.96963   0.082401  
         N         N         0.51537   0.52005   -0.00274  -0.175410           
         H         H         0.55317   0.60280   0.98021   0.113825  
         C         C         0.58692   0.61028   0.99146   -0.110671           
         C         C         0.62310   0.65252   0.98522   -0.133480           
         H         H         0.61690   0.67726   0.96434   0.104594  
         C         C         0.70566   0.70780   0.99108   0.064876  
         H         H         0.66530   0.74237   0.00979   0.104682  
         C         C         0.69899   0.74586   -0.00090  -0.169976           
         C         C         0.73491   0.78910   0.99418   0.076823  
         C         C         0.77885   0.79541   0.98460   -0.140535           
         H         H         0.80654   0.82929   0.98258   0.115047  
         H         H         0.31018   0.17394   0.99235   0.078603  
         C         C         0.27521   0.16786   0.00500   0.052503  
         N         N         0.24294   0.12784   0.01379   -0.178213           
         N         N         0.25895   0.09696   0.00619   -0.177558           
         H         H         0.19166   0.04957   0.01484   0.087082  
         C         C         0.22646   0.05617   0.00821   0.051935  
         C         C         0.23490   0.01791   0.00092   0.074216  
         C         C         0.27875   0.02489   -0.00086  -0.139137           
         H         H         0.30545   0.05997   0.00374   0.107546  
         C         C         0.33395   0.99711   0.99447   0.068919  
         H         H         0.36539   0.06979   -0.00168  0.110475  
         C         C         0.37067   0.04122   -0.00266  -0.127737           
         C         C         0.41432   0.04880   0.99420   -0.126673           
         H         H         0.44200   0.08298   0.99393   0.107878  
         C         C         0.42333   0.01267   0.98889   0.062954  
         C         C         0.46922   0.02226   0.98921   0.042838  
         H         H         0.49604   0.05678   0.98560   0.082102  
         N         N         0.52448   0.00847   0.00274   -0.186882           
         H         H         0.60911   0.06128   0.05435   0.109909  
         C         C         0.61539   0.03072   0.03202   -0.096535           
         C         C         0.65796   0.03798   0.04142   -0.131530           
         H         H         0.68491   0.07525   0.07459   0.104533  
         C         C         0.71251   0.00640   0.01745   0.063068  
         H         H         0.74539   0.07494   0.99071   0.102936  
         C         C         0.74994   0.04837   0.00674   -0.162797           
         C         C         0.79376   0.05614   0.00669   0.061102  
         C         C         0.80094   0.02042   0.01233   -0.151214           
         H         H         0.83503   0.02625   0.00982   0.115267  
         H         H         0.82263   0.12539   0.98045   0.082306  
         C         C         0.83052   0.10042   0.99437   0.044586  
         N         N         0.87175   0.11062   0.00051   -0.175872           
         N         N         0.90137   0.15496   0.98932   -0.179438           
         H         H         0.95002   0.13745   -0.00373  0.086169  
         C         C         0.94252   0.16355   0.98826   0.054476  
         C         C         0.97974   0.20784   0.97811   0.062064  
         C         C         0.97212   0.24448   0.98033   -0.147277           
         H         H         0.93754   0.23802   0.98902   0.106000  
         C         C         -0.00093  0.32667   0.98073   0.067583  
         H         H         0.92753   0.28374   0.95659   0.110137  
         C         C         0.95567   0.31912   0.97247   -0.126366           
         C         C         0.94788   0.35616   0.98232   -0.133228           
         H         H         0.91398   0.34948   0.97626   0.105545  
         C         C         0.98335   0.40178   0.99498   0.068562  
         C         C         0.97465   0.43893   -0.00302  0.044121  
         H         H         0.93988   0.43257   0.00437   0.076823  
         N         N         0.99130   0.50923   0.99173   -0.186378           
         H         H         0.94432   0.55289   0.03785   0.109670  
         C         C         0.97196   0.58395   0.01546   -0.094127           
         C         C         0.96488   0.62185   0.02981   -0.127487           
         H         H         0.93099   0.62010   0.06609   0.101537  
         C         C         0.99245   0.70249   0.01447   0.068694  
         H         H         0.92005   0.66423   0.02513   0.106980  
         C         C         0.94882   0.69749   0.02389   -0.157872           
         C         C         0.94079   0.73386   0.02748   0.066136  
         C         C         0.97716   0.77689   0.02212   -0.143802           
         H         H         0.97070   0.80437   0.02030   0.114854  
         H         H         0.86761   0.69262   0.04308   0.083751  
         C         C         0.89503   0.72503   0.02680   0.047605  
         N         N         0.88648   0.75410   0.00333   -0.185433           
         N         N         0.84057   0.73800   0.00249   -0.190408           
         H         H         0.85929   0.80027   0.96692   0.090171  
         C         C         0.83207   0.76741   0.98096   0.053852  
         C         C         0.78638   0.75866   0.97958   0.068021  
         C         C         0.74986   0.71486   0.97970   -0.151860           
         H         H         0.75761   0.68734   0.97399   0.106547  
         C         C         0.66725   0.66265   -0.00199  0.063061  
         H         H         0.70633   0.63455   0.03028   0.114607  
         C         C         0.67317   0.62782   0.01588   -0.133979           
         C         C         0.63712   0.58486   0.01867   -0.123769           
         H         H         0.64272   0.55868   0.03326   0.104814  
         C         C         0.59329   0.57531   0.00675   0.057560  
         C         C         0.55621   0.53032   0.01045   0.038448  
         H         H         0.56329   0.50473   0.02410   0.081630  
         N         N         0.48539   0.47512   0.00239   -0.177562           
         H         H         0.44837   0.39194   0.01460   0.114496  
         C         C         0.41442   0.38426   0.00458   -0.111104           
         C         C         0.37855   0.34157   0.00909   -0.133372           
         H         H         0.38524   0.31626   0.02428   0.103010  
         C         C         0.29580   0.28644   0.00935   0.061161  
         H         H         0.33591   0.25222   0.99526   0.106236  
         C         C         0.30227   0.24860   0.00436   -0.165932           
         C         C         0.26628   0.20565   0.01146   0.073606  
         C         C         0.22245   0.19961   0.02104   -0.133833           
         H         H         0.19468   0.16602   0.02476   0.113032  
         H         H         0.68962   0.82819   0.50161   0.079491  
         C         C         0.72425   0.83483   0.49944   0.052296  
         N         N         0.75694   0.87640   0.50572   -0.179602           
         N         N         0.74166   0.90774   0.51265   -0.177045           
         H         H         0.80915   0.95539   0.50888   0.086619  
         C         C         0.77440   0.94876   0.51381   0.055565  
         C         C         0.76607   0.98678   0.51883   0.074064  
         C         C         0.72210   0.98071   0.52871   -0.138040           
         H         H         0.69517   0.94782   0.54059   0.106257  
         C         C         0.66715   0.00638   0.51879   0.071899  
         H         H         0.63859   0.92700   0.44327   0.110276  
         C         C         0.63191   0.95824   0.47508   -0.126385           
         C         C         0.58843   0.94952   0.46946   -0.124929           
         H         H         0.56175   0.91205   0.43656   0.105892  
         C         C         0.57829   0.98824   0.50341   0.061873  
         C         C         0.53263   0.97746   0.49328   0.042669  
         H         H         0.50652   0.94031   0.47394   0.082653  
         N         N         0.47661   0.99255   0.49632   -0.184495           
         H         H         0.39047   0.94329   0.49162   0.111201  
         C         C         0.38446   0.97129   0.49113   -0.099101           
         C         C         0.34127   0.96482   0.49442   -0.134365           
         H         H         0.31374   0.93088   0.49651   0.104445  
         C         C         0.28642   0.99313   0.49556   0.062603  
         H         H         0.25371   0.92122   0.50102   0.105360  
         C         C         0.24919   0.94964   0.49658   -0.165607           
         C         C         0.20532   0.94219   0.49727   0.062604  
         C         C         0.19798   0.97911   0.50064   -0.151936           
         H         H         0.16372   0.97298   0.50287   0.115443  
         H         H         0.17603   0.86914   0.49669   0.083120  
         C         C         0.16842   0.89646   0.49746   0.043330  
         N         N         0.12724   0.88812   0.49950   -0.175087           
         N         N         0.09704   0.84233   0.49804   -0.178089           
         H         H         0.04898   0.86512   0.52351   0.084932  
         C         C         0.05599   0.83614   0.51298   0.054625  
         C         C         0.01832   0.79139   0.51722   0.063148  
         C         C         0.02566   0.75390   0.50974   -0.143659           
         H         H         0.06021   0.76062   0.50394   0.106290  
         C         C         0.99866   0.67096   0.50216   0.068152  
         H         H         0.06993   0.70032   0.42206   0.108335  
         C         C         0.04187   0.67116   0.45421   -0.121713           
         C         C         0.04951   0.63344   0.43998   -0.135201           
         H         H         0.08319   0.63405   0.39948   0.104332  
         C         C         0.01425   0.59396   0.47478   0.071590  
         C         C         0.02364   0.55614   0.46420   0.044648  
         H         H         0.05826   0.55924   0.42737   0.074492  
         N         N         0.00964   0.48941   0.48922   -0.187377           
         H         H         0.05871   0.45431   0.50963   0.109078  
         C         C         0.03084   0.41919   0.49961   -0.094646           
         C         C         0.03778   0.38228   0.49433   -0.133793           
         H         H         0.07169   0.38964   0.50210   0.104334  
         C         C         0.00984   0.29723   0.47757   0.069709  
         H         H         0.08227   0.33400   0.45924   0.102604  
         C         C         0.05330   0.30177   0.46762   -0.153063           
         C         C         0.06092   0.26577   0.46871   0.062419  
         C         C         0.02431   0.22308   0.47531   -0.143316           
         H         H         0.03040   0.19558   0.47836   0.114648  
         H         H         0.13394   0.30695   0.45622   0.082644  
         C         C         0.10638   0.27451   0.47199   0.052767  
         N         N         0.11452   0.24551   0.49763   -0.187584           
         N         N         0.16027   0.26139   0.50007   -0.191472           
         H         H         0.14110   0.19745   0.52511   0.090991  
         C         C         0.16845   0.23093   0.51617   0.056488  
         C         C         0.21407   0.23944   0.51763   0.068319  
         C         C         0.25052   0.28291   0.51475   -0.150724           
         H         H         0.24251   0.30947   0.51473   0.105296  
         C         C         0.33284   0.33582   0.49712   0.068034  
         H         H         0.29215   0.36908   0.50888   0.112893  
         C         C         0.32584   0.37367   0.50502   -0.131325           
         C         C         0.36140   0.41746   0.50719   -0.122356           
         H         H         0.35494   0.44599   0.51255   0.107267  
         C         C         0.40583   0.42547   0.50119   0.055231  
         C         C         0.44233   0.47171   0.50556   0.037656  
         H         H         0.43440   0.49894   0.50744   0.084381  
         N         N         0.51306   0.52755   0.51228   -0.179044           
         H         H         0.54969   0.61402   0.52257   0.112513  
         C         C         0.58391   0.61992   0.51843   -0.103778           
         C         C         0.61956   0.66345   0.52024   -0.134785           
         H         H         0.61237   0.69141   0.52591   0.105874  
         C         C         0.70250   0.71652   0.50151   0.060560  
         H         H         0.66274   0.74919   0.50193   0.106010  
         C         C         0.69625   0.75347   0.49900   -0.163220           
         C         C         0.73247   0.79654   0.49286   0.073948  
         C         C         0.77630   0.80277   0.48505   -0.137384           
         H         H         0.80407   0.83608   0.47911   0.114963  
         H         H         0.30994   0.17860   0.49012   0.080451  
         C         C         0.27490   0.17264   0.50456   0.049119  
         N         N         0.24268   0.13287   0.51491   -0.177310           
         N         N         0.25863   0.10209   0.50811   -0.182347           
         H         H         0.19138   0.05427   0.51238   0.085813  
         C         C         0.22612   0.06083   0.50648   0.060090  
         C         C         0.23439   0.02249   0.49934   0.070124  
         C         C         0.27818   0.02886   0.49493   -0.133605           
         H         H         0.30512   0.06300   0.49185   0.106290  
         C         C         0.33260   0.00090   0.49646   0.070265  
         H         H         0.36519   0.07349   0.49852   0.110076  
         C         C         0.36982   0.04447   0.49712   -0.128300           
         C         C         0.41325   0.05109   0.49245   -0.127702           
         H         H         0.44144   0.08484   0.49043   0.107998  
         C         C         0.42146   0.01463   0.48891   0.061108  
         C         C         0.46711   0.02362   0.48965   0.043756  
         H         H         0.49409   0.05815   0.48692   0.080435  
         N         N         0.52232   0.01055   0.50593   -0.188226           
         H         H         0.60570   0.06669   0.57424   0.109881  
         C         C         0.61337   0.03650   0.54671   -0.098677           
         C         C         0.65654   0.04523   0.55559   -0.135575           
         H         H         0.68255   0.08322   0.59375   0.105699  
         C         C         0.71342   0.01536   0.52314   0.061679  
         H         H         0.74540   0.08500   0.50347   0.106827  
         C         C         0.75045   0.05800   0.51472   -0.171802           
         C         C         0.79449   0.06549   0.51028   0.064245  
         C         C         0.80221   0.02924   0.51000   -0.160868           
         H         H         0.83648   0.03481   0.50276   0.115614  
         H         H         0.82381   0.13516   0.48587   0.081161  
         C         C         0.83140   0.11005   0.50013   0.043997  
         N         N         0.87249   0.12016   0.50803   -0.172713           
         N         N         0.90230   0.16464   0.49769   -0.181959           
         H         H         0.95099   0.14696   0.50352   0.086920  
         C         C         0.94349   0.17312   0.49559   0.054025  
         C         C         0.98080   0.21717   0.48343   0.060287  
         C         C         0.97400   0.25434   0.48571   -0.136417           
         H         H         0.93955   0.24836   0.49579   0.104439  
         C         C         0.00221   0.33652   0.48268   0.076912  
         H         H         0.93043   0.29499   0.46595   0.111649  
         C         C         0.95892   0.32977   0.47702   -0.129845           
         C         C         0.95163   0.36686   0.48500   -0.121977           
         H         H         0.91776   0.36050   0.48018   0.104267  
         C         C         0.98737   0.41216   0.49504   0.063783  
         C         C         0.97803   0.44940   0.50093   0.047646  
         H         H         0.94289   0.44277   0.51451   0.078950  
         N         N         0.99234   0.51942   0.49909   -0.179986           
         H         H         0.94364   0.56315   0.55200   0.109948  
         C         C         0.97090   0.59334   0.52263   -0.100536           
         C         C         0.96355   0.63097   0.53589   -0.129794           
         H         H         0.92976   0.62964   0.57667   0.100397  
         C         C         0.99021   0.71031   0.51288   0.071825  
         H         H         0.91799   0.67138   0.52342   0.108341  
         C         C         0.94643   0.70498   0.52263   -0.164724           
         C         C         0.93836   0.74154   0.52738   0.069293  
         C         C         0.97463   0.78535   0.52654   -0.154299           
         H         H         0.96808   0.81331   0.52864   0.114421  
         H         H         0.86554   0.69967   0.54378   0.083094  
         C         C         0.89251   0.73209   0.52569   0.045493  
         N         N         0.88369   0.76085   0.50144   -0.183480           
         N         N         0.83773   0.74490   0.50295   -0.192049           
         H         H         0.85662   0.80712   0.46846   0.088758  
         C         C         0.82913   0.77461   0.48378   0.058480  
         C         C         0.78349   0.76667   0.48623   0.070330  
         C         C         0.74669   0.72426   0.49523   -0.142854           
         H         H         0.75433   0.69815   0.50039   0.106136  
         C         C         0.66432   0.67139   0.51088   0.068322  
         H         H         0.70474   0.63854   0.50428   0.112422  
         C         C         0.67115   0.63383   0.50597   -0.133102           
         C         C         0.63549   0.59018   0.50466   -0.120514           
         H         H         0.64190   0.56215   0.50300   0.109425  
         C         C         0.59114   0.58200   0.50845   0.053443  
         C         C         0.55455   0.53599   0.50603   0.039811  
         H         H         0.56243   0.50796   0.49844   0.084468  
         N         N         0.48372   0.48123   0.50739   -0.175586           
         H         H         0.44756   0.39307   0.48296   0.112658  
         C         C         0.41331   0.38733   0.48861   -0.106347           
         C         C         0.37766   0.34375   0.48659   -0.131517           
         H         H         0.38494   0.31570   0.47984   0.106541  
         C         C         0.29481   0.29040   0.50483   0.063294  
         H         H         0.33536   0.25731   0.49588   0.103789  
         C         C         0.30161   0.25309   0.50219   -0.165697           
         C         C         0.26577   0.20999   0.50881   0.073323  
         C         C         0.22175   0.20313   0.51515   -0.135589           
         H         H         0.19416   0.16927   0.51749   0.115458 

