
##########################################################################
#               Crystallographic Information Format file
#               Produced by PyCifRW module
#
#  This is a CIF file.  CIF has been adopted by the International
#  Union of Crystallography as the standard for data archiving and
#  transmission.
#
#  For information on this file format, follow the CIF links at
#  http://www.iucr.org
##########################################################################

data_image0

_cell_length_a                          39.6045
_cell_length_b                          39.5925
_cell_length_c                          8.09492
_cell_angle_alpha                       56.4444
_cell_angle_beta                        109.53
_cell_angle_gamma                       119.895
_symmetry_space_group_name_H-M          'P 1'
_space_group_name_Hall                  'P 1'
loop_
  _atom_site_type_symbol
  _atom_site_label
  _atom_site_fract_x
  _atom_site_fract_y
  _atom_site_fract_z
  _atom_site_charge
         H         H         0.73212   0.84834   0.00860   0.080723  
         C         C         0.76228   0.85436   0.00865   0.052327  
         N         N         0.79078   0.89051   0.00398   -0.179381           
         N         N         0.77718   0.91748   -0.00070  -0.177795           
         H         H         0.83572   0.96061   0.98750   0.085721  
         C         C         0.80553   0.95409   0.99046   0.055931  
         C         C         0.79846   0.98737   0.98615   0.070845  
         C         C         0.76048   0.98118   0.99036   -0.131078           
         H         H         0.73600   0.95126   0.99384   0.121436  
         C         C         0.64565   0.99546   0.01216   0.131164  
         H         H         0.61707   0.93466   0.99322   0.116868  
         C         C         0.61271   0.95887   0.00004   -0.129432           
         C         C         0.57528   0.95482   0.99050   -0.127986           
         H         H         0.55003   0.92704   0.97688   0.111461  
         C         C         0.56928   0.98647   0.99528   0.061617  
         C         C         0.52969   0.98042   0.98866   0.039842  
         H         H         0.50551   0.95263   0.96801   0.083180  
         N         N         0.48221   0.99354   0.00045   -0.186704           
         H         H         0.40718   0.95269   0.99122   0.112277  
         C         C         0.40208   0.97646   -0.00204  -0.103662           
         C         C         0.36445   0.97162   0.98876   -0.127380           
         H         H         0.33936   0.94386   0.97473   0.116826  
         C         C         0.31964   0.99722   0.99267   -0.097252           
         C         C         0.28667   0.99181   -0.00298  -0.092868           
         C         C         0.24866   0.98577   0.00301   0.132982  
         H         H         0.22001   0.92356   -0.00400  0.117411  
         C         C         0.21583   0.94787   0.00311   -0.163760           
         C         C         0.17804   0.94185   0.00691   0.060701  
         C         C         0.17289   0.97413   0.01050   -0.153529           
         H         H         0.14347   0.96918   0.01399   0.115980  
         H         H         0.15133   0.88065   0.98464   0.082489  
         C         C         0.14523   0.90277   0.00075   0.044708  
         N         N         0.10953   0.89409   0.01085   -0.173721           
         N         N         0.08339   0.85538   -0.00157  -0.177483           
         H         H         0.04074   0.87015   0.00829   0.087384  
         C         C         0.04743   0.84768   -0.00226  0.052815  
         C         C         0.01484   0.80938   0.98267   0.061108  
         C         C         0.02077   0.77742   0.98043   -0.133044           
         H         H         0.05043   0.78165   0.98725   0.121588  
         C         C         0.00827   0.64683   0.99066   0.141380  
         H         H         0.07123   0.67861   0.02274   0.114074  
         C         C         0.04659   0.65016   0.01223   -0.135542           
         C         C         0.05246   0.61730   0.02194   -0.128210           
         H         H         0.08206   0.62011   0.03866   0.104178  
         C         C         0.02064   0.58032   0.00877   0.063155  
         C         C         0.02757   0.54713   0.01370   0.044210  
         H         H         0.05787   0.55155   0.02858   0.078412  
         N         N         0.01192   0.48603   0.00182   -0.177314           
         H         H         0.05178   0.45352   0.98706   0.112421  
         C         C         0.02730   0.42329   0.99371   -0.105071           
         C         C         0.03282   0.39085   -0.00099  -0.124180           
         H         H         0.06193   0.39498   -0.00401  0.114531  
         C         C         0.00612   0.31867   0.01182   -0.093841           
         C         C         0.01056   0.28961   0.01781   -0.098098           
         C         C         0.01579   0.25638   0.02213   0.140532  
         H         H         0.07884   0.28872   0.04109   0.116953  
         C         C         0.05380   0.26022   0.03305   -0.153139           
         C         C         0.05941   0.22802   0.03309   0.062279  
         C         C         0.02674   0.19104   0.02528   -0.150694           
         H         H         0.03143   0.16643   0.02330   0.112260  
         H         H         0.12333   0.26290   0.04939   0.083583  
         C         C         0.09895   0.23469   0.03292   0.052756  
         N         N         0.10565   0.20868   0.00948   -0.185884           
         N         N         0.14560   0.22230   0.00873   -0.187994           
         H         H         0.12893   0.16772   0.97255   0.089597  
         C         C         0.15278   0.19642   0.98702   0.057274  
         C         C         0.19269   0.20432   0.98492   0.065675  
         C         C         0.22455   0.24221   0.98837   -0.138860           
         H         H         0.21913   0.26631   0.99045   0.119627  
         C         C         0.35262   0.35609   0.02555   0.131555  
         H         H         0.31614   0.38141   0.03315   0.120800  
         C         C         0.34586   0.38775   0.02675   -0.130541           
         C         C         0.37690   0.42621   0.02199   -0.131920           
         H         H         0.37153   0.45032   0.02469   0.111263  
         C         C         0.41554   0.43433   0.01627   0.059374  
         C         C         0.44733   0.47484   0.01086   0.036450  
         H         H         0.44069   0.49779   0.01771   0.084404  
         N         N         0.50920   0.52387   -0.00325  -0.177611           
         H         H         0.54523   0.60014   0.99435   0.116804  
         C         C         0.57423   0.60434   0.98888   -0.111053           
         C         C         0.60694   0.64130   0.98767   -0.127212           
         H         H         0.60411   0.66667   0.99273   0.116741  
         C         C         0.67834   0.68295   0.99042   -0.097776           
         C         C         0.70792   0.71394   -0.00004  -0.096360           
         C         C         0.74131   0.75072   0.00789   0.133839  
         H         H         0.70736   0.77965   0.00907   0.117461  
         C         C         0.73661   0.78363   0.00932   -0.162541           
         C         C         0.76899   0.82099   0.01212   0.071997  
         C         C         0.80669   0.82556   0.01417   -0.137060           
         H         H         0.83167   0.85477   0.01601   0.116371  
         H         H         0.27453   0.15006   -0.00004  0.085441  
         C         C         0.24442   0.14481   -0.00402  0.048726  
         N         N         0.21538   0.10933   -0.00396  -0.175531           
         N         N         0.22789   0.08168   -0.00001  -0.176238           
         H         H         0.16894   0.03972   0.01020   0.086471  
         C         C         0.19888   0.04556   0.00699   0.053321  
         C         C         0.20514   0.01200   0.00934   0.072408  
         C         C         0.24296   0.01770   0.00586   -0.134281           
         H         H         0.26767   0.04729   0.00456   0.121382  
         C         C         0.35794   0.00300   0.99462   0.128980  
         H         H         0.38578   0.06325   0.01788   0.116282  
         C         C         0.39056   0.03948   0.00949   -0.125864           
         C         C         0.42818   0.04403   0.01906   -0.126779           
         H         H         0.45317   0.07181   0.03384   0.109842  
         C         C         0.43469   0.01283   0.01328   0.062350  
         C         C         0.47448   0.01958   0.01916   0.035617  
         H         H         0.49834   0.04772   0.03833   0.086727  
         N         N         0.52228   0.00652   0.00867   -0.186284           
         H         H         0.59749   0.04661   0.01764   0.112203  
         C         C         0.60222   0.02263   0.01063   -0.100655           
         C         C         0.63966   0.02714   0.01829   -0.130439           
         H         H         0.66497   0.05491   0.03106   0.117015  
         C         C         0.68369   0.00107   0.01060   -0.096046           
         C         C         0.71637   0.00638   0.00215   -0.093578           
         C         C         0.75435   0.01290   0.99273   0.133495  
         H         H         0.78235   0.07540   -0.00299  0.118307  
         C         C         0.78686   0.05125   0.99018   -0.162888           
         C         C         0.82474   0.05778   0.98508   0.058648  
         C         C         0.83034   0.02562   0.98294   -0.153694           
         H         H         0.85993   0.03108   0.97910   0.115880  
         H         H         0.85176   0.12028   -0.00195  0.084993  
         C         C         0.85758   0.09705   0.98903   0.045540  
         N         N         0.89313   0.10423   0.98537   -0.174473           
         N         N         0.92005   0.14309   0.99359   -0.174933           
         H         H         0.96145   0.12437   0.00159   0.086357  
         C         C         0.95568   0.14860   0.00270   0.053013  
         C         C         0.98889   0.18679   0.01472   0.059622  
         C         C         0.98346   0.21952   0.01264   -0.141103           
         H         H         0.95395   0.21583   0.00464   0.121570  
         C         C         0.00060   0.35170   0.00703   0.135647  
         H         H         0.93803   0.31621   0.01677   0.115058  
         C         C         0.96274   0.34632   0.00991   -0.126928           
         C         C         0.95742   0.37910   0.00367   -0.133071           
         H         H         0.92821   0.37474   0.00722   0.105968  
         C         C         0.98948   0.41795   -0.00335  0.070704  
         C         C         0.98300   0.45105   0.99505   0.036633  
         H         H         0.95286   0.44591   0.98975   0.078720  
         N         N         0.99879   0.51294   -0.00104  -0.182275           
         H         H         0.95805   0.54836   0.97812   0.109296  
         C         C         0.98244   0.57699   0.98800   -0.094590           
         C         C         0.97632   0.60949   0.97883   -0.121479           
         H         H         0.94685   0.60699   0.96171   0.114612  
         C         C         0.00158   0.67969   0.98173   -0.094756           
         C         C         0.99511   0.70774   0.97365   -0.092709           
         C         C         0.98879   0.74040   0.96966   0.136664  
         H         H         0.92569   0.70751   0.95006   0.117304  
         C         C         0.95052   0.73601   0.95919   -0.150743           
         C         C         0.94430   0.76758   0.96194   0.063002  
         C         C         0.97675   0.80427   0.97374   -0.143138           
         H         H         0.97168   0.82816   0.97989   0.113825  
         H         H         0.88026   0.73274   0.94377   0.085702  
         C         C         0.90456   0.76096   0.96051   0.050549  
         N         N         0.89786   0.78709   0.98314   -0.185395           
         N         N         0.85789   0.77403   0.98315   -0.188258           
         H         H         0.87583   0.82799   0.02604   0.090077  
         C         C         0.85139   0.79996   0.00831   0.054157  
         C         C         0.81190   0.79327   0.01224   0.065676  
         C         C         0.77913   0.75576   0.00970   -0.143689           
         H         H         0.78344   0.73119   0.00564   0.120760  
         C         C         0.64475   0.64624   0.98438   0.128699  
         H         H         0.67731   0.61709   0.97380   0.120820  
         C         C         0.64846   0.61310   0.97992   -0.131872           
         C         C         0.61556   0.57628   0.98046   -0.127443           
         H         H         0.61849   0.55110   0.97410   0.112030  
         C         C         0.57798   0.57105   0.98615   0.057774  
         C         C         0.54479   0.53178   0.98722   0.040832  
         H         H         0.55032   0.50811   0.98015   0.080552  
         N         N         0.48309   0.48386   -0.00124  -0.174245           
         H         H         0.45218   0.40880   0.01378   0.114401  
         C         C         0.42232   0.40231   0.01852   -0.112150           
         C         C         0.39155   0.36395   0.02308   -0.125079           
         H         H         0.39671   0.33969   0.02077   0.117586  
         C         C         0.32135   0.31801   0.01915   -0.102922           
         C         C         0.29469   0.28567   0.00572   -0.094482           
         C         C         0.26295   0.24821   0.99461   0.128809  
         H         H         0.29898   0.22068   -0.00010  0.118240  
         C         C         0.26924   0.21589   -0.00392  -0.163075           
         C         C         0.23759   0.17822   0.99149   0.069540  
         C         C         0.19935   0.17274   0.98566   -0.136969           
         H         H         0.17515   0.14315   0.98362   0.113325  
         H         H         0.72482   0.85166   0.50445   0.082636  
         C         C         0.75478   0.85717   0.50387   0.048813  
         N         N         0.78385   0.89326   0.49704   -0.176177           
         N         N         0.77153   0.92120   0.49230   -0.173315           
         H         H         0.83065   0.96234   0.48658   0.087178  
         C         C         0.80076   0.95702   0.48742   0.050594  
         C         C         0.79489   0.99093   0.48436   0.073765  
         C         C         0.75722   0.98555   0.48837   -0.135518           
         H         H         0.73234   0.95586   0.49184   0.121011  
         C         C         0.64303   -0.00068  0.51197   0.132008  
         H         H         0.61593   0.93833   0.49570   0.119846  
         C         C         0.61075   0.96215   0.50151   -0.129219           
         C         C         0.57296   0.95697   0.49303   -0.124974           
         H         H         0.54818   0.92867   0.48145   0.109464  
         C         C         0.56602   0.98821   0.49617   0.062181  
         C         C         0.52612   0.98107   0.49053   0.037663  
         H         H         0.50238   0.95316   0.46922   0.083627  
         N         N         0.47803   0.99339   0.50227   -0.185555           
         H         H         0.40354   0.95211   0.49234   0.112553  
         C         C         0.39788   0.97556   0.49869   -0.102497           
         C         C         0.36004   0.97016   0.48904   -0.127116           
         H         H         0.33526   0.94217   0.47551   0.116339  
         C         C         0.31449   0.99476   0.49371   -0.098180           
         C         C         0.28149   0.98883   0.50043   -0.093922           
         C         C         0.24354   0.98292   0.50623   0.133874  
         H         H         0.21467   0.92045   0.50090   0.116875  
         C         C         0.21061   0.94508   0.50606   -0.164405           
         C         C         0.17291   0.93980   0.50601   0.058966  
         C         C         0.16795   0.97249   0.50684   -0.153285           
         H         H         0.13848   0.96796   0.50680   0.114127  
         H         H         0.14474   0.87746   0.49069   0.083811  
         C         C         0.13953   0.90121   0.49878   0.048512  
         N         N         0.10421   0.89521   0.49937   -0.173718           
         N         N         0.07667   0.85674   0.48949   -0.176681           
         H         H         0.03618   0.87473   0.49670   0.087035  
         C         C         0.04134   0.85094   0.48872   0.052813  
         C         C         0.00783   0.81282   0.47762   0.060281  
         C         C         0.01316   0.78012   0.47890   -0.140521           
         H         H         0.04268   0.78384   0.48681   0.121869  
         C         C         -0.00063  0.64947   0.48796   0.136267  
         H         H         0.06215   0.68386   0.50658   0.116149  
         C         C         0.03798   0.65464   0.50116   -0.123053           
         C         C         0.04479   0.62265   0.50852   -0.135281           
         H         H         0.07461   0.62691   0.51786   0.105790  
         C         C         0.01360   0.58469   0.50170   0.072890  
         C         C         0.02174   0.55256   0.50395   0.039695  
         H         H         0.05229   0.55841   0.51380   0.076299  
         N         N         0.00806   0.49181   0.49418   -0.184319           
         H         H         0.04969   0.45872   0.49242   0.113948  
         C         C         0.02536   0.42867   0.49610   -0.097710           
         C         C         0.03148   0.39659   0.50112   -0.128380           
         H         H         0.06083   0.40102   0.50035   0.115404  
         C         C         0.00563   0.32451   0.51204   -0.092561           
         C         C         0.01008   0.29536   0.51851   -0.096821           
         C         C         0.01480   0.26178   0.52196   0.142592  
         H         H         0.07799   0.29291   0.54300   0.117059  
         C         C         0.05257   0.26478   0.53368   -0.152299           
         C         C         0.05760   0.23226   0.53281   0.063431  
         C         C         0.02444   0.19589   0.52262   -0.143657           
         H         H         0.02857   0.17104   0.51954   0.114450  
         H         H         0.12170   0.26557   0.55293   0.084805  
         C         C         0.09694   0.23776   0.53492   0.052323  
         N         N         0.10300   0.21124   0.51199   -0.185983           
         N         N         0.14287   0.22382   0.51248   -0.187149           
         H         H         0.12479   0.16830   0.48096   0.089752  
         C         C         0.14923   0.19696   0.49359   0.054963  
         C         C         0.18871   0.20364   0.48978   0.064526  
         C         C         0.22143   0.24130   0.49101   -0.140803           
         H         H         0.21703   0.26580   0.49522   0.120167  
         C         C         0.35450   0.35132   0.52239   0.131388  
         H         H         0.32065   0.37630   0.55369   0.120389  
         C         C         0.34972   0.38231   0.53925   -0.132194           
         C         C         0.38188   0.41943   0.54112   -0.126392           
         H         H         0.37805   0.44281   0.55743   0.110965  
         C         C         0.41974   0.42713   0.52501   0.055147  
         C         C         0.45226   0.46668   0.52543   0.040715  
         H         H         0.44629   0.48872   0.54305   0.081788  
         N         N         0.51348   0.51629   0.50770   -0.174137           
         H         H         0.54453   0.59156   0.49899   0.117873  
         C         C         0.57432   0.59810   0.49265   -0.112973           
         C         C         0.60519   0.63625   0.49010   -0.125404           
         H         H         0.60016   0.66022   0.49559   0.115803  
         C         C         0.67545   0.68265   0.48953   -0.099994           
         C         C         0.70231   0.71540   0.49869   -0.096021           
         C         C         0.73450   0.75295   0.50717   0.129046  
         H         H         0.69953   0.78144   0.50361   0.118098  
         C         C         0.72902   0.78570   0.50635   -0.163193           
         C         C         0.76111   0.82327   0.50975   0.071530  
         C         C         0.79909   0.82796   0.51597   -0.134735           
         H         H         0.82373   0.85731   0.51816   0.113871  
         H         H         0.26834   0.14872   0.49012   0.082150  
         C         C         0.23826   0.14290   0.49061   0.051943  
         N         N         0.20947   0.10702   0.49399   -0.178876           
         N         N         0.22254   0.07987   0.49686   -0.175360           
         H         H         0.16379   0.03753   0.50695   0.085437  
         C         C         0.19382   0.04362   0.50399   0.053119  
         C         C         0.20027   0.01009   0.50735   0.069340  
         C         C         0.23807   0.01517   0.50752   -0.133026           
         H         H         0.26297   0.04455   0.50728   0.122017  
         C         C         0.35295   0.00129   0.49379   0.129353  
         H         H         0.37984   0.06211   0.51136   0.117073  
         C         C         0.38515   0.03830   0.50612   -0.126423           
         C         C         0.42301   0.04325   0.51777   -0.125003           
         H         H         0.44769   0.07134   0.53151   0.108857  
         C         C         0.43009   0.01207   0.51489   0.060383  
         C         C         0.47004   0.01888   0.52367   0.039640  
         H         H         0.49378   0.04655   0.54685   0.083770  
         N         N         0.51813   0.00661   0.51164   -0.184149           
         H         H         0.59277   0.04887   0.51326   0.112496  
         C         C         0.59828   0.02512   0.50853   -0.103866           
         C         C         0.63607   0.03058   0.51640   -0.128950           
         H         H         0.66094   0.05879   0.52757   0.117259  
         C         C         0.68134   0.00588   0.50950   -0.099509           
         C         C         0.71412   0.01178   0.49945   -0.091835           
         C         C         0.75189   0.01789   0.48964   0.134014  
         H         H         0.78081   0.08090   0.48928   0.116694  
         C         C         0.78483   0.05613   0.48513   -0.166154           
         C         C         0.82249   0.06175   0.48167   0.061919  
         C         C         0.82732   0.02886   0.48160   -0.158460           
         H         H         0.85665   0.03344   0.47896   0.117311  
         H         H         0.84947   0.12435   0.49210   0.083209  
         C         C         0.85551   0.10110   0.48442   0.045680  
         N         N         0.89123   0.10866   0.48130   -0.176583           
         N         N         0.91769   0.14785   0.48907   -0.176699           
         H         H         0.95975   0.13007   0.49722   0.085352  
         C         C         0.95354   0.15401   0.49836   0.054280  
         C         C         0.98676   0.19221   0.51143   0.060318  
         C         C         0.98202   0.22527   0.51057   -0.137660           
         H         H         0.95271   0.22220   0.50185   0.122330  
         C         C         -0.00037  0.35751   0.50587   0.144714  
         H         H         0.93691   0.32229   0.50645   0.116687  
         C         C         0.96146   0.35208   0.50428   -0.134755           
         C         C         0.95560   0.38446   0.49871   -0.127472           
         H         H         0.92611   0.37993   0.49840   0.104864  
         C         C         0.98730   0.42316   0.49589   0.062719  
         C         C         0.97994   0.45573   0.49397   0.044100  
         H         H         0.94957   0.44914   0.49395   0.077005  
         N         N         0.99374   0.51762   0.49293   -0.174865           
         H         H         0.95117   0.54976   0.48672   0.112450  
         C         C         0.97505   0.57934   0.49032   -0.104021           
         C         C         0.96802   0.61108   0.48292   -0.128380           
         H         H         0.93828   0.60689   0.47392   0.113592  
         C         C         0.99233   0.68185   0.48080   -0.090947           
         C         C         0.98653   0.71018   0.47391   -0.103459           
         C         C         0.98087   0.74322   0.46947   0.143802  
         H         H         0.91776   0.71101   0.45097   0.117531  
         C         C         0.94290   0.73941   0.45929   -0.160565           
         C         C         0.93734   0.77150   0.46089   0.067079  
         C         C         0.97002   0.80846   0.46884   -0.156080           
         H         H         0.96541   0.83299   0.47193   0.114598  
         H         H         0.87341   0.73684   0.44306   0.085165  
         C         C         0.89779   0.76471   0.46233   0.046868  
         N         N         0.89122   0.79029   0.48954   -0.184450           
         N         N         0.85129   0.77707   0.48980   -0.188446           
         H         H         0.86893   0.83092   0.53298   0.090334  
         C         C         0.84467   0.80284   0.51514   0.058652  
         C         C         0.80501   0.79593   0.51630   0.063271  
         C         C         0.77266   0.75842   0.51204   -0.136306           
         H         H         0.77747   0.73398   0.50941   0.120352  
         C         C         0.64407   0.64437   0.48499   0.128902  
         H         H         0.68039   0.61925   0.47404   0.121940  
         C         C         0.65073   0.61297   0.48095   -0.135430           
         C         C         0.61959   0.57480   0.48323   -0.126831           
         H         H         0.62478   0.55092   0.47772   0.109828  
         C         C         0.58098   0.56656   0.49006   0.057928  
         C         C         0.54933   0.52631   0.49186   0.037336  
         H         H         0.55626   0.50428   0.47932   0.081625  
         N         N         0.48783   0.47657   0.50546   -0.177529           
         H         H         0.45381   0.40197   0.49817   0.118615  
         C         C         0.42457   0.39583   0.51111   -0.112423           
         C         C         0.39265   0.35853   0.51053   -0.126945           
         H         H         0.39639   0.33478   0.49692   0.114207  
         C         C         0.32157   0.31451   0.51284   -0.101856           
         C         C         0.29247   0.28347   0.50043   -0.095817           
         C         C         0.25930   0.24658   0.49179   0.133082  
         H         H         0.29338   0.21804   0.48866   0.117326  
         C         C         0.26410   0.21378   0.48989   -0.160345           
         C         C         0.23176   0.17624   0.48855   0.071471  
         C         C         0.19406   0.17137   0.48861   -0.133370           
         H         H         0.16921   0.14192   0.48864   0.113576 

