
##########################################################################
#               Crystallographic Information Format file
#               Produced by PyCifRW module
#
#  This is a CIF file.  CIF has been adopted by the International
#  Union of Crystallography as the standard for data archiving and
#  transmission.
#
#  For information on this file format, follow the CIF links at
#  http://www.iucr.org
##########################################################################

data_image0

_cell_length_a                          25.6105
_cell_length_b                          25.6669
_cell_length_c                          9.29725
_cell_angle_alpha                       75.1496
_cell_angle_beta                        120.184
_cell_angle_gamma                       102.487
_symmetry_space_group_name_H-M          'P 1'
_space_group_name_Hall                  'P 1'
loop_
  _atom_site_type_symbol
  _atom_site_label
  _atom_site_fract_x
  _atom_site_fract_y
  _atom_site_fract_z
  _atom_site_charge
         C         C         0.45313   0.47433   0.25227   0.237444  
         C         C         0.99463   0.95562   0.35018   -0.252165           
         C         C         0.55780   0.54086   0.26892   0.231363  
         C         C         0.01223   0.04640   0.12931   -0.250047           
         C         C         0.55224   0.48594   0.26817   -0.257071           
         C         C         0.96505   0.04355   0.16539   0.270264  
         C         C         0.45895   0.52920   0.25523   -0.260127           
         C         C         0.04118   0.95809   0.31150   0.271596  
         C         C         0.51636   0.62110   0.26376   0.079777  
         C         C         0.10135   0.01151   0.16806   0.087556  
         C         C         0.49589   0.39400   0.25925   0.089793  
         C         C         0.90794   0.99307   0.32019   0.073285  
         C         C         0.50026   0.45153   0.25992   -0.023506           
         C         C         0.95635   0.99741   0.27987   -0.047962           
         C         C         0.51088   0.56365   0.26322   -0.012059           
         C         C         0.05076   0.00486   0.20058   -0.057484           
         N         N         0.54143   0.37308   0.28075   -0.281051           
         N         N         0.87096   0.03083   0.24895   -0.278869           
         N         N         0.47357   0.64259   0.25771   -0.302822           
         N         N         0.13932   0.97480   0.23810   -0.285744           
         N         N         0.56427   0.95495   0.27185   -0.317496           
         N         N         0.44904   0.06515   0.21333   -0.336183           
         H         H         0.57011   0.96128   0.38347   0.272988  
         H         H         0.44205   0.05802   0.10055   0.252433  
         C         C         0.60901   0.97576   0.22019   0.152153  
         C         C         0.46990   0.11912   0.24245   0.155141  
         C         C         0.39982   0.04731   0.24904   0.145893  
         C         C         0.53780   0.90426   0.22083   0.142062  
         C         C         0.60795   0.93948   0.13015   -0.213008           
         C         C         0.43572   0.13312   0.30351   -0.206043           
         C         C         0.39282   0.08901   0.30797   -0.206523           
         C         C         0.56400   0.89544   0.13021   -0.223479           
         H         H         0.63501   0.94597   0.06644   0.133270  
         H         H         0.44437   0.17069   0.34797   0.125887  
         H         H         0.36153   0.08571   0.35678   0.136207  
         H         H         0.55094   0.86107   0.06733   0.128480  
         N         N         0.57213   0.07950   0.22620   -0.315123           
         N         N         0.44054   0.94200   0.25219   -0.320624           
         C         C         0.62782   0.07455   0.24028   0.174108  
         C         C         0.56827   0.13232   0.23220   0.162984  
         C         C         0.38728   0.94685   0.25329   0.167031  
         C         C         0.44620   0.88784   0.26460   0.177020  
         C         C         0.66092   0.12782   0.25768   -0.179361           
         C         C         0.62511   0.16220   0.24941   -0.169474           
         C         C         0.36041   0.89196   0.27716   -0.164533           
         C         C         0.39649   0.85695   0.29059   -0.179861           
         H         H         0.70710   0.13760   0.27782   0.134516  
         H         H         0.63644   0.20492   0.25664   0.138877  
         H         H         0.31881   0.88099   0.28591   0.135748  
         H         H         0.39007   0.81319   0.31849   0.136781  
         C         C         0.64657   0.02745   0.24190   -0.128332           
         C         C         0.52165   0.15141   0.23259   -0.120690           
         C         C         0.36669   0.99424   0.24287   -0.124150           
         C         C         0.48971   0.86912   0.24829   -0.141932           
         C         C         0.70556   0.02873   0.24987   0.088667  
         C         C         0.52717   0.20943   0.24256   0.078569  
         C         C         0.30742   0.99045   0.23908   0.082841  
         C         C         0.48592   0.81124   0.24659   0.082775  
         C         C         0.72738   0.07144   0.15741   -0.144416           
         C         C         0.57700   0.23261   0.37583   -0.136207           
         C         C         0.26283   0.02466   0.11552   -0.122281           
         C         C         0.53923   0.78439   0.32998   -0.117788           
         C         C         0.29348   0.95255   0.35684   -0.140779           
         C         C         0.42994   0.77954   0.16729   -0.134607           
         C         C         0.74234   0.98582   0.34973   -0.122441           
         C         C         0.48112   0.24221   0.12079   -0.125099           
         H         H         0.69867   0.10331   0.07261   0.099218  
         H         H         0.61199   0.20724   0.47295   0.104875  
         H         H         0.27250   0.05415   0.02231   0.106552  
         H         H         0.58286   0.80770   0.39341   0.111408  
         H         H         0.32783   0.92745   0.45758   0.097966  
         H         H         0.38846   0.79939   0.09200   0.105648  
         H         H         0.72662   0.95264   0.42310   0.109155  
         H         H         0.44255   0.22508   0.01582   0.109418  
         C         C         0.78282   0.07149   0.16476   -0.154690           
         C         C         0.58139   0.28660   0.38641   -0.168173           
         C         C         0.20668   0.02066   0.10926   -0.175402           
         C         C         0.53685   0.72938   0.33607   -0.174605           
         C         C         0.23703   0.94731   0.34866   -0.154613           
         C         C         0.42720   0.72413   0.17784   -0.152124           
         C         C         0.79774   0.98558   0.35713   -0.173550           
         C         C         0.48433   0.29600   0.13233   -0.182600           
         H         H         0.79847   0.10386   0.08920   0.124082  
         H         H         0.61994   0.30444   0.48958   0.122031  
         H         H         0.17301   0.04720   0.01144   0.107791  
         H         H         0.57865   0.70987   0.40591   0.115966  
         H         H         0.22682   0.91806   0.44119   0.117037  
         H         H         0.38384   0.70025   0.11589   0.121338  
         H         H         0.82490   0.95211   0.43622   0.110370  
         H         H         0.44920   0.32147   0.03579   0.110846  
         C         C         0.81893   0.02847   0.26302   0.201450  
         C         C         0.53459   0.31882   0.26629   0.209977  
         C         C         0.19285   0.98162   0.22643   0.204028  
         C         C         0.48048   0.69781   0.25929   0.197708  
         O         O         0.40209   0.44008   0.24216   -0.456616           
         H         H         0.58777   0.46761   0.27277   0.131468  
         H         H         0.55728   0.64521   0.26389   0.080803  
         H         H         0.98853   0.92085   0.43829   0.135698  
         O         O         0.92875   0.08387   0.09271   -0.431518           
         H         H         0.10757   0.04954   0.08867   0.077090  
         H         H         0.53942   0.04834   0.21639   0.255608  
         H         H         0.37588   0.46029   0.25018   0.373369  
         H         H         0.89764   0.07205   0.13770   0.293342  
         O         O         0.60845   0.57521   0.27681   -0.453209           
         H         H         0.42336   0.54734   0.25093   0.132943  
         H         H         0.45295   0.36955   0.24167   0.077961  
         H         H         0.01871   0.08145   0.04266   0.136509  
         O         O         0.07674   0.91713   0.38071   -0.426287           
         H         H         0.90314   0.95697   0.40798   0.076865  
         H         H         0.46404   0.97311   0.21006   0.251381  
         H         H         0.63410   0.55512   0.26612   0.375916  
         H         H         0.10923   0.92969   0.34220   0.299444  
         C         C         0.45528   0.45394   0.79822   0.245015  
         C         C         0.97195   0.94133   0.81218   -0.247140           
         C         C         0.53577   0.52624   0.70066   0.246635  
         C         C         0.01915   0.04100   0.69026   -0.250318           
         C         C         0.52981   0.47124   0.69904   -0.254859           
         C         C         0.96837   0.03939   0.71028   0.272066  
         C         C         0.46064   0.50897   0.79809   -0.262321           
         C         C         0.02323   0.94303   0.79435   0.270101  
         C         C         0.50270   0.60426   0.73798   0.089237  
         C         C         0.10130   0.99776   0.71586   0.081158  
         C         C         0.48478   0.37656   0.74588   0.093036  
         C         C         0.89067   0.98468   0.79085   0.084249  
         C         C         0.48957   0.43421   0.74620   -0.018195           
         C         C         0.94405   0.98846   0.77192   -0.055989           
         C         C         0.49995   0.54629   0.74720   -0.011031           
         C         C         0.04737   0.99391   0.73190   -0.053324           
         N         N         0.52505   0.35663   0.73686   -0.276804           
         N         N         0.86320   0.02731   0.75233   -0.271397           
         N         N         0.46784   0.62335   0.77152   -0.286240           
         N         N         0.13013   0.95541   0.76061   -0.275403           
         N         N         0.54649   0.93937   0.72346   -0.284810           
         N         N         0.43924   0.04200   0.74886   -0.279990           
         H         H         0.52520   0.96311   0.74528   0.251871  
         H         H         0.45597   0.01883   0.71132   0.256511  
         C         C         0.60083   0.95679   0.71716   0.139524  
         C         C         0.45575   0.09712   0.75324   0.159504  
         C         C         0.39238   0.02310   0.78975   0.141289  
         C         C         0.53344   0.88343   0.73271   0.163007  
         C         C         0.62073   0.91061   0.71238   -0.224806           
         C         C         0.41879   0.11322   0.80226   -0.230478           
         C         C         0.38013   0.06764   0.82584   -0.235633           
         C         C         0.58034   0.86557   0.72625   -0.214028           
         H         H         0.66105   0.91051   0.70263   0.131632  
         H         H         0.42198   0.15356   0.82342   0.130027  
         H         H         0.34546   0.06640   0.86108   0.130811  
         H         H         0.58429   0.82400   0.73151   0.135947  
         N         N         0.55106   0.05854   0.70180   -0.363779           
         N         N         0.43723   0.92174   0.78585   -0.358651           
         C         C         0.60996   0.05615   0.72097   0.155291  
         C         C         0.54919   0.11270   0.71534   0.160911  
         C         C         0.38016   0.92404   0.77695   0.157818  
         C         C         0.43647   0.86968   0.75448   0.154444  
         C         C         0.64247   0.10910   0.74384   -0.166795           
         C         C         0.60602   0.14290   0.73437   -0.170012           
         C         C         0.34463   0.87325   0.73572   -0.174432           
         C         C         0.37770   0.84137   0.72163   -0.165879           
         H         H         0.68939   0.11897   0.77035   0.134953  
         H         H         0.61823   0.18497   0.74907   0.131015  
         H         H         0.29749   0.86437   0.70779   0.135066  
         H         H         0.36203   0.80226   0.68179   0.138615  
         C         C         0.63240   0.01078   0.72711   -0.124729           
         C         C         0.50487   0.13041   0.72889   -0.114882           
         C         C         0.36015   0.96918   0.78310   -0.121618           
         C         C         0.48113   0.85113   0.74255   -0.108064           
         C         C         0.69464   0.01650   0.74634   0.077081  
         C         C         0.50914   0.18925   0.73059   0.076434  
         C         C         0.29960   0.96452   0.77231   0.075212  
         C         C         0.47545   0.79241   0.74138   0.074592  
         C         C         0.71190   0.05728   0.64028   -0.142885           
         C         C         0.56120   0.21550   0.85060   -0.130960           
         C         C         0.25831   0.00300   0.65872   -0.117113           
         C         C         0.46055   0.75339   0.85621   -0.138014           
         C         C         0.28019   0.92204   0.87048   -0.135662           
         C         C         0.48523   0.77310   0.62878   -0.130527           
         C         C         0.73827   0.98127   0.86909   -0.120272           
         C         C         0.46107   0.22040   0.61212   -0.126440           
         H         H         0.67971   0.08548   0.54660   0.095720  
         H         H         0.59783   0.19180   0.94768   0.097468  
         H         H         0.27075   0.03455   0.57469   0.111764  
         H         H         0.45329   0.76670   0.94589   0.092698  
         H         H         0.31089   0.89196   0.95947   0.100059  
         H         H         0.49433   0.80194   0.53413   0.089754  
         H         H         0.72776   0.95134   0.95993   0.111258  
         H         H         0.42006   0.20110   0.51831   0.109675  
         C         C         0.76846   0.06136   0.64930   -0.156749           
         C         C         0.56623   0.27056   0.84991   -0.170509           
         C         C         0.20190   0.00044   0.64882   -0.180777           
         C         C         0.45608   0.69822   0.85912   -0.164096           
         C         C         0.22370   0.91918   0.86117   -0.155382           
         C         C         0.48306   0.71809   0.63486   -0.181385           
         C         C         0.79465   0.98441   0.87724   -0.180889           
         C         C         0.46485   0.27541   0.61330   -0.191280           
         H         H         0.78035   0.09208   0.56250   0.119022  
         H         H         0.60676   0.29042   0.94327   0.122715  
         H         H         0.17049   0.02954   0.55556   0.113205  
         H         H         0.44424   0.66849   0.94744   0.113457  
         H         H         0.21007   0.88710   0.94172   0.122852  
         H         H         0.49005   0.70507   0.54408   0.101786  
         H         H         0.82784   0.95742   0.97504   0.112170  
         H         H         0.42758   0.29914   0.51951   0.114040  
         C         C         0.80979   0.02357   0.76286   0.206910  
         C         C         0.51772   0.30131   0.73240   0.209086  
         C         C         0.18421   0.95913   0.75401   0.206276  
         C         C         0.46962   0.67943   0.75332   0.207697  
         O         O         0.41732   0.41667   0.84899   -0.454475           
         H         H         0.55639   0.45534   0.66130   0.128410  
         H         H         0.53560   0.63044   0.70149   0.083548  
         H         H         0.95387   0.90261   0.86037   0.137772  
         O         O         0.94341   0.08567   0.67170   -0.427889           
         H         H         0.11809   0.03818   0.67033   0.077276  
         H         H         0.51589   0.04729   0.59217   0.264699  
         H         H         0.40123   0.43527   0.89495   0.369939  
         H         H         0.90687   0.07441   0.69373   0.306067  
         O         O         0.57610   0.56272   0.65865   -0.455884           
         H         H         0.43450   0.52498   0.83705   0.127669  
         H         H         0.44657   0.35080   0.75819   0.077846  
         H         H         0.03686   0.07967   0.64058   0.137603  
         O         O         0.04892   0.89698   0.83540   -0.429630           
         H         H         0.87315   0.94414   0.83348   0.077773  
         H         H         0.47499   0.93205   0.89317   0.253969  
         H         H         0.58904   0.54534   0.60183   0.368996  
         H         H         0.08638   0.90871   0.81736   0.302143 

