
##########################################################################
#               Crystallographic Information Format file
#               Produced by PyCifRW module
#
#  This is a CIF file.  CIF has been adopted by the International
#  Union of Crystallography as the standard for data archiving and
#  transmission.
#
#  For information on this file format, follow the CIF links at
#  http://www.iucr.org
##########################################################################

data_image0

_cell_length_a                          36.9462
_cell_length_b                          37.0045
_cell_length_c                          8.25056
_cell_angle_alpha                       97.4314
_cell_angle_beta                        112.453
_cell_angle_gamma                       120.037
_symmetry_space_group_name_H-M          'P 1'
_space_group_name_Hall                  'P 1'
loop_
  _atom_site_type_symbol
  _atom_site_label
  _atom_site_fract_x
  _atom_site_fract_y
  _atom_site_fract_z
  _atom_site_charge
         N         N         0.43932   0.54938   0.27162   -0.287325           
         N         N         0.45647   0.89276   0.27915   -0.289321           
         N         N         0.10569   0.55890   0.21158   -0.288823           
         N         N         0.55252   0.44118   0.27607   -0.305826           
         N         N         0.89440   0.45468   0.28787   -0.289768           
         N         N         0.56032   0.10786   0.21875   -0.286277           
         C         C         0.42295   0.51030   0.28768   0.083636  
         C         C         0.49913   0.91603   0.29360   0.085375  
         C         C         0.08718   0.57976   0.23732   0.083752  
         C         C         0.51481   0.42435   0.29802   0.089144  
         C         C         0.91803   0.49642   0.29915   0.087159  
         C         C         0.58210   0.08827   0.24278   0.082445  
         C         C         0.44715   0.48949   0.29244   -0.063210           
         C         C         0.52012   0.96007   0.28557   -0.064512           
         C         C         0.04465   0.55804   0.25417   -0.068055           
         C         C         0.49246   0.44683   0.29687   -0.069087           
         C         C         0.96122   0.51700   0.28671   -0.067388           
         C         C         0.56080   0.04507   0.25824   -0.074415           
         C         C         0.42707   0.44619   0.30347   -0.155210           
         C         C         0.56620   0.98378   0.29829   -0.157264           
         C         C         0.02618   0.58241   0.28255   -0.154434           
         C         C         0.44931   0.42546   0.30657   -0.147162           
         C         C         0.98537   0.56234   0.29777   -0.155099           
         C         C         0.58609   0.02532   0.28511   -0.148786           
         H         H         0.39440   0.43044   0.31300   0.108381  
         H         H         0.58499   0.96816   0.31645   0.105936  
         H         H         0.04474   0.61699   0.28965   0.106758  
         H         H         0.43441   0.39258   0.31684   0.107368  
         H         H         0.97099   0.58074   0.31954   0.105991  
         H         H         0.62090   0.04344   0.29141   0.106269  
         C         C         0.51306   0.48996   0.28494   0.204810  
         C         C         0.51503   0.02239   0.24745   0.195984  
         C         C         0.97915   0.49201   0.25979   0.191606  
         C         C         0.49038   0.51172   0.28427   0.198702  
         C         C         0.02132   0.51274   0.24313   0.194831  
         C         C         0.49445   0.97935   0.26110   0.191659  
         O         O         0.55342   0.51122   0.27443   -0.375402           
         O         O         0.49045   0.04009   0.22539   -0.368856           
         O         O         0.95764   0.44926   0.24910   -0.376179           
         O         O         0.51026   0.55225   0.27203   -0.376302           
         O         O         0.03766   0.48867   0.21749   -0.375490           
         O         O         0.45111   0.95835   0.24915   -0.375620           
         C         C         0.54685   0.37053   0.21158   -0.178033           
         C         C         0.62536   0.17597   0.21167   -0.173923           
         C         C         0.81693   0.44419   0.20536   -0.176857           
         C         C         0.37907   0.55681   0.30776   -0.173514           
         C         C         0.18451   0.62921   0.29414   -0.175770           
         C         C         0.44564   0.81956   0.22076   -0.175802           
         C         C         0.56948   0.35005   0.20508   -0.115986           
         C         C         0.64477   0.21950   0.21516   -0.118001           
         C         C         0.77108   0.41873   0.18528   -0.123174           
         C         C         0.35917   0.58038   0.30012   -0.120356           
         C         C         0.22803   0.64902   0.29517   -0.121610           
         C         C         0.41982   0.77509   0.20747   -0.123808           
         H         H         0.50847   0.34936   0.16865   0.110893  
         H         H         0.64478   0.16167   0.20967   0.106476  
         H         H         0.82668   0.47163   0.15573   0.108225  
         H         H         0.36624   0.52854   0.35144   0.105362  
         H         H         0.17885   0.65078   0.36715   0.107203  
         H         H         0.47323   0.83118   0.18115   0.107524  
         H         H         0.54791   0.31319   0.15619   0.106849  
         H         H         0.67893   0.23766   0.21687   0.104692  
         H         H         0.74635   0.42751   0.12443   0.104468  
         H         H         0.33158   0.56964   0.33904   0.098761  
         H         H         0.25520   0.68582   0.36599   0.102022  
         H         H         0.42821   0.75311   0.15893   0.104215  
         C         C         0.55767   0.17087   0.21077   -0.149015           
         C         C         0.83350   0.39458   0.32427   -0.159384           
         C         C         0.62145   0.44365   0.31190   -0.154735           
         C         C         0.15966   0.55479   0.12857   -0.151933           
         C         C         0.39462   0.83040   0.30267   -0.155480           
         C         C         0.43326   0.60888   0.22145   -0.153313           
         C         C         0.57723   0.21442   0.21316   -0.121563           
         C         C         0.78761   0.36944   0.30439   -0.117584           
         C         C         0.64395   0.42292   0.30760   -0.122373           
         C         C         0.20338   0.57495   0.13060   -0.122380           
         C         C         0.36949   0.78606   0.29181   -0.121957           
         C         C         0.41284   0.63208   0.21250   -0.123345           
         H         H         0.52411   0.15187   0.21333   0.126697  
         H         H         0.85861   0.38600   0.38162   0.126468  
         H         H         0.64152   0.48029   0.35349   0.124775  
         H         H         0.13215   0.51801   0.06091   0.125429  
         H         H         0.38536   0.85246   0.34185   0.125340  
         H         H         0.46203   0.61952   0.18918   0.117516  
         H         H         0.55769   0.22859   0.21447   0.105836  
         H         H         0.77762   0.34155   0.35134   0.107017  
         H         H         0.68213   0.44427   0.34816   0.106331  
         H         H         0.20959   0.55343   0.06092   0.109541  
         H         H         0.34114   0.77434   0.32720   0.104228  
         H         H         0.42591   0.66053   0.17006   0.100092  
         C         C         0.64245   0.28653   0.21818   0.074186  
         C         C         0.70713   0.35482   0.21922   0.082389  
         C         C         0.64165   0.35296   0.23823   0.064928  
         C         C         0.28610   0.64446   0.22404   0.081487  
         C         C         0.35625   0.71069   0.24098   0.071567  
         C         C         0.35295   0.64275   0.24231   0.074276  
         C         C         0.58144   0.15078   0.21107   0.202784  
         C         C         0.84911   0.43255   0.27586   0.205849  
         C         C         0.57259   0.41796   0.26669   0.206862  
         C         C         0.14935   0.58149   0.21037   0.205761  
         C         C         0.43378   0.84831   0.27073   0.194950  
         C         C         0.41660   0.57059   0.26755   0.197025  
         C         C         0.62141   0.24018   0.21594   0.059007  
         C         C         0.75505   0.38064   0.23298   0.056215  
         C         C         0.61867   0.37550   0.25320   0.060315  
         C         C         0.23884   0.62255   0.21514   0.057283  
         C         C         0.38163   0.75725   0.24554   0.055308  
         C         C         0.37511   0.61846   0.25133   0.053411  
         C         C         0.68470   0.31000   0.20702   -0.174970           
         C         C         0.68418   0.37524   0.22856   -0.180383           
         C         C         0.62187   0.30897   0.23627   -0.187829           
         C         C         0.31099   0.68871   0.22987   -0.179100           
         C         C         0.37713   0.68742   0.25119   -0.186044           
         C         C         0.30716   0.62169   0.22655   -0.178595           
         H         H         0.59097   0.29279   0.25669   0.100443  
         H         H         0.70070   0.29322   0.18728   0.102909  
         H         H         0.70009   0.40926   0.23016   0.102543  
         H         H         0.28782   0.58722   0.21986   0.104197  
         H         H         0.29381   0.70572   0.21957   0.100408  
         H         H         0.41319   0.70460   0.26894   0.103745  
         H         H         0.56249   0.48930   0.27072   0.299334  
         H         H         0.51134   0.07031   0.21601   0.300130  
         H         H         0.92890   0.44161   0.26657   0.303000  
         H         H         0.48780   0.56098   0.27070   0.297560  
         H         H         0.06705   0.50957   0.20502   0.303448  
         H         H         0.44323   0.92835   0.26108   0.300221  
         H         H         0.38997   0.49153   0.29640   0.076192  
         H         H         0.52053   0.90276   0.31184   0.077808  
         H         H         0.10309   0.61462   0.24531   0.074487  
         H         H         0.49921   0.39262   0.32038   0.076782  
         H         H         0.90574   0.51733   0.31820   0.076209  
         H         H         0.61768   0.10397   0.25394   0.075128  
         N         N         0.44518   0.55481   0.78190   -0.299955           
         N         N         0.45056   0.89143   0.77865   -0.297044           
         N         N         0.10359   0.55496   0.70666   -0.286774           
         N         N         0.55431   0.44251   0.77921   -0.295231           
         N         N         0.89365   0.45194   0.78938   -0.289148           
         N         N         0.55545   0.10761   0.72517   -0.278461           
         C         C         0.42906   0.51603   0.80080   0.090071  
         C         C         0.49389   0.91558   0.79906   0.090404  
         C         C         0.08507   0.57591   0.73135   0.083793  
         C         C         0.51475   0.42497   0.78847   0.085960  
         C         C         0.91720   0.49364   0.80023   0.087273  
         C         C         0.57798   0.08878   0.75674   0.084333  
         C         C         0.45139   0.49371   0.79726   -0.065232           
         C         C         0.51459   0.95940   0.78916   -0.067047           
         C         C         0.04294   0.55455   0.75047   -0.066307           
         C         C         0.49412   0.44891   0.79360   -0.066350           
         C         C         0.96033   0.51417   0.78766   -0.065763           
         C         C         0.55591   0.04483   0.76575   -0.073146           
         C         C         0.43001   0.45002   0.80441   -0.151985           
         C         C         0.56149   0.98381   0.80905   -0.151463           
         C         C         0.02467   0.57910   0.77923   -0.154614           
         C         C         0.45063   0.42794   0.80061   -0.148217           
         C         C         0.98433   0.55940   0.79748   -0.153063           
         C         C         0.58175   0.02560   0.79830   -0.154908           
         H         H         0.39750   0.43485   0.81498   0.107660  
         H         H         0.58077   0.96863   0.83206   0.106289  
         H         H         0.04298   0.61348   0.78404   0.108253  
         H         H         0.43452   0.39446   0.80550   0.108687  
         H         H         0.97025   0.57800   0.82085   0.107463  
         H         H         0.61739   0.04438   0.81146   0.108307  
         C         C         0.51641   0.49270   0.78825   0.201612  
         C         C         0.50883   0.02099   0.74338   0.198682  
         C         C         0.97813   0.48906   0.76084   0.193156  
         C         C         0.49433   0.51506   0.78703   0.203239  
         C         C         0.02004   0.50954   0.74250   0.195128  
         C         C         0.48814   0.97792   0.75695   0.196081  
         O         O         0.55739   0.51366   0.78191   -0.377923           
         O         O         0.48328   0.03779   0.71235   -0.371571           
         O         O         0.95683   0.44649   0.75185   -0.374997           
         O         O         0.51506   0.55580   0.77655   -0.376892           
         O         O         0.03640   0.48544   0.71766   -0.375620           
         O         O         0.44395   0.95618   0.73800   -0.374633           
         C         C         0.56195   0.38041   0.81424   -0.175194           
         C         C         0.61575   0.17093   0.68199   -0.175394           
         C         C         0.81639   0.44166   0.70664   -0.176469           
         C         C         0.37123   0.55000   0.71594   -0.175284           
         C         C         0.18186   0.62545   0.78970   -0.174816           
         C         C         0.44225   0.81948   0.72519   -0.175211           
         C         C         0.58307   0.35893   0.79852   -0.123133           
         C         C         0.63509   0.21363   0.67587   -0.120626           
         C         C         0.77080   0.41676   0.68902   -0.121567           
         C         C         0.34934   0.57180   0.70567   -0.114488           
         C         C         0.22591   0.64588   0.79527   -0.121014           
         C         C         0.41704   0.77478   0.70954   -0.122217           
         H         H         0.53710   0.36788   0.86701   0.099012  
         H         H         0.62999   0.15283   0.65447   0.106107  
         H         H         0.82611   0.46872   0.65489   0.108198  
         H         H         0.34922   0.51333   0.67474   0.108847  
         H         H         0.17530   0.64660   0.85936   0.107756  
         H         H         0.47088   0.83222   0.69103   0.108985  
         H         H         0.57405   0.33021   0.83980   0.102225  
         H         H         0.66381   0.22741   0.64239   0.102348  
         H         H         0.74604   0.42547   0.62724   0.099991  
         H         H         0.31058   0.55143   0.65715   0.104355  
         H         H         0.25263   0.68274   0.86603   0.103124  
         H         H         0.42721   0.75412   0.66492   0.105525  
         C         C         0.55787   0.17395   0.73940   -0.150442           
         C         C         0.83280   0.39209   0.82690   -0.157612           
         C         C         0.60972   0.43610   0.71868   -0.158681           
         C         C         0.15892   0.55137   0.63127   -0.153960           
         C         C         0.38818   0.82747   0.79466   -0.155233           
         C         C         0.44738   0.62149   0.81495   -0.152858           
         C         C         0.57824   0.21716   0.73759   -0.126995           
         C         C         0.78718   0.36749   0.80937   -0.121445           
         C         C         0.63056   0.41429   0.70266   -0.129418           
         C         C         0.20332   0.57217   0.63827   -0.122502           
         C         C         0.36360   0.78285   0.78131   -0.126679           
         C         C         0.42528   0.64307   0.80606   -0.122600           
         H         H         0.52798   0.15836   0.76620   0.121200  
         H         H         0.85762   0.38314   0.88265   0.125935  
         H         H         0.61945   0.46597   0.68530   0.120755  
         H         H         0.13211   0.51446   0.56541   0.126547  
         H         H         0.37729   0.84841   0.82908   0.125925  
         H         H         0.48566   0.64058   0.85647   0.125055  
         H         H         0.56398   0.23511   0.76627   0.103934  
         H         H         0.77698   0.33954   0.85586   0.108982  
         H         H         0.65650   0.42763   0.65522   0.096320  
         H         H         0.21085   0.55113   0.57442   0.108753  
         H         H         0.33417   0.77002   0.81083   0.105373  
         H         H         0.44727   0.67956   0.84352   0.105304  
         C         C         0.63911   0.28446   0.70494   0.073489  
         C         C         0.70695   0.35365   0.72469   0.081116  
         C         C         0.63949   0.35148   0.72352   0.071630  
         C         C         0.28536   0.64252   0.73139   0.079397  
         C         C         0.35296   0.70859   0.73506   0.073262  
         C         C         0.35229   0.64205   0.74335   0.066480  
         C         C         0.57682   0.15027   0.71507   0.199838  
         C         C         0.84844   0.42992   0.77770   0.203540  
         C         C         0.57437   0.41915   0.77153   0.197355  
         C         C         0.14741   0.57766   0.70697   0.204698  
         C         C         0.42857   0.84697   0.77015   0.198546  
         C         C         0.42098   0.57460   0.77296   0.202751  
         C         C         0.61726   0.23830   0.70511   0.057864  
         C         C         0.75501   0.37916   0.74000   0.056801  
         C         C         0.61740   0.37479   0.73984   0.054383  
         C         C         0.23797   0.61990   0.72128   0.060605  
         C         C         0.37748   0.75526   0.73971   0.055282  
         C         C         0.37573   0.61901   0.75190   0.057027  
         C         C         0.68379   0.30871   0.71128   -0.178622           
         C         C         0.68459   0.37470   0.73331   -0.180976           
         C         C         0.61686   0.30609   0.70528   -0.186460           
         C         C         0.30836   0.68609   0.72940   -0.176589           
         C         C         0.37385   0.68549   0.73888   -0.186253           
         C         C         0.30824   0.62127   0.74217   -0.180448           
         H         H         0.58137   0.28747   0.69278   0.102826  
         H         H         0.70129   0.29254   0.70663   0.102298  
         H         H         0.70353   0.41033   0.75489   0.101393  
         H         H         0.29228   0.58894   0.75713   0.105377  
         H         H         0.29008   0.70203   0.71749   0.099608  
         H         H         0.40746   0.70147   0.73655   0.100795  
         H         H         0.56588   0.49120   0.77868   0.299171  
         H         H         0.50462   0.06841   0.70672   0.302546  
         H         H         0.92816   0.43894   0.76990   0.301441  
         H         H         0.49343   0.56533   0.77686   0.300445  
         H         H         0.06554   0.50615   0.70329   0.302708  
         H         H         0.43640   0.92656   0.75305   0.299881  
         H         H         0.39805   0.49927   0.82260   0.074895  
         H         H         0.51620   0.90320   0.82425   0.073192  
         H         H         0.10073   0.61061   0.73747   0.074798  
         H         H         0.49508   0.39086   0.78874   0.075325  
         H         H         0.90487   0.51454   0.81862   0.072799  
         H         H         0.61495   0.10602   0.78013   0.071737 

