
##########################################################################
#               Crystallographic Information Format file
#               Produced by PyCifRW module
#
#  This is a CIF file.  CIF has been adopted by the International
#  Union of Crystallography as the standard for data archiving and
#  transmission.
#
#  For information on this file format, follow the CIF links at
#  http://www.iucr.org
##########################################################################

data_image0

_cell_length_a                          37.532
_cell_length_b                          36.9309
_cell_length_c                          7.97742
_cell_angle_alpha                       91.8383
_cell_angle_beta                        60.6625
_cell_angle_gamma                       119.95
_symmetry_space_group_name_H-M          'P 1'
_space_group_name_Hall                  'P 1'
loop_
  _atom_site_type_symbol
  _atom_site_label
  _atom_site_fract_x
  _atom_site_fract_y
  _atom_site_fract_z
  _atom_site_charge
         N         N         0.90459   0.46513   0.24059   -0.279292           
         N         N         0.12592   0.53534   0.26433   -0.283307           
         N         N         0.55849   0.43798   0.27984   -0.286133           
         N         N         0.48290   0.58366   0.19968   -0.288417           
         N         N         0.57760   0.11639   0.27142   -0.289617           
         N         N         0.43473   0.89242   0.21171   -0.286560           
         C         C         0.92956   0.45021   0.23775   0.064532  
         C         C         0.57425   0.47875   0.26313   0.078143  
         C         C         0.53845   0.09235   0.26817   0.074220  
         C         C         0.97435   0.47661   0.23523   -0.044924           
         C         C         0.05660   0.52480   0.26785   -0.041341           
         C         C         0.54627   0.49471   0.25785   -0.019238           
         C         C         0.49178   0.52566   0.24626   -0.024946           
         C         C         0.52104   0.04795   0.25647   -0.041643           
         C         C         0.48458   0.95960   0.26098   -0.045589           
         C         C         0.00358   0.46056   0.20930   0.248841  
         C         C         0.04327   0.48412   0.22818   -0.215659           
         C         C         0.56071   0.53827   0.25786   0.241236  
         C         C         0.53395   0.55314   0.25033   -0.261086           
         C         C         0.47808   0.02190   0.25326   0.258727  
         C         C         0.46093   0.97877   0.25298   -0.201474           
         O         O         0.99451   0.42176   0.16297   -0.447981           
         H         H         0.06577   0.47192   0.20739   0.134958  
         O         O         0.60179   0.56432   0.26418   -0.449100           
         H         H         0.54482   0.58665   0.24660   0.132643  
         O         O         0.45147   0.03706   0.25021   -0.435334           
         H         H         0.42846   0.95907   0.24741   0.145107  
         C         C         0.02821   0.54146   0.28810   0.246789  
         C         C         0.98816   0.51766   0.27085   -0.196132           
         C         C         0.47624   0.48165   0.25395   0.238394  
         C         C         0.50368   0.46702   0.25670   -0.259452           
         C         C         0.52737   0.98562   0.26587   0.237343  
         C         C         0.54537   0.02905   0.25960   -0.215211           
         O         O         0.03782   0.58083   0.32745   -0.444451           
         H         H         0.96546   0.52977   0.29384   0.143079  
         O         O         0.43381   0.45492   0.25808   -0.454347           
         H         H         0.49310   0.43361   0.25871   0.134998  
         O         O         0.55375   0.97023   0.27104   -0.445579           
         H         H         0.57783   0.04887   0.26489   0.138788  
         C         C         0.18951   0.54579   0.30592   -0.156233           
         C         C         0.84816   0.39952   0.18567   -0.173638           
         C         C         0.48344   0.64254   0.07662   -0.158109           
         C         C         0.62338   0.44269   0.31469   -0.174414           
         C         C         0.37685   0.82193   0.21762   -0.150995           
         C         C         0.57744   0.18382   0.25324   -0.170524           
         C         C         0.23477   0.57223   0.28416   -0.125541           
         C         C         0.80383   0.37512   0.19810   -0.126194           
         C         C         0.45963   0.66061   0.06519   -0.128043           
         C         C         0.64605   0.42259   0.31806   -0.122134           
         C         C         0.36095   0.77918   0.21157   -0.123048           
         C         C         0.59740   0.22652   0.26345   -0.129014           
         H         H         0.16707   0.51087   0.37487   0.118124  
         H         H         0.87394   0.38970   0.11960   0.103290  
         H         H         0.52324   0.66143   -0.00084  0.115104  
         H         H         0.63473   0.47437   0.34336   0.109573  
         H         H         0.35475   0.83447   0.23617   0.124377  
         H         H         0.55020   0.17039   0.21433   0.098450  
         H         H         0.24750   0.55759   0.33818   0.104828  
         H         H         0.79611   0.34684   0.14037   0.106864  
         H         H         0.48100   0.69404   0.97564   0.104465  
         H         H         0.67434   0.43907   0.35067   0.102584  
         H         H         0.32590   0.75887   0.22567   0.106578  
         H         H         0.58508   0.24480   0.23062   0.101931  
         C         C         0.40509   0.57439   0.28878   -0.169608           
         C         C         0.63106   0.17942   0.32287   -0.148417           
         C         C         0.45118   0.83409   0.16686   -0.173196           
         C         C         0.82781   0.45071   0.32012   -0.140835           
         C         C         0.19961   0.60911   0.15964   -0.171392           
         C         C         0.56995   0.37983   0.25645   -0.145181           
         C         C         0.38157   0.59279   0.27778   -0.117868           
         C         C         0.65092   0.22224   0.33257   -0.129451           
         C         C         0.43496   0.79131   0.16087   -0.119314           
         C         C         0.78320   0.42569   0.33602   -0.119109           
         C         C         0.24455   0.63530   0.14007   -0.120875           
         C         C         0.59366   0.36040   0.25468   -0.130638           
         H         H         0.38344   0.54151   0.38425   0.107282  
         H         H         0.64365   0.16037   0.34670   0.119425  
         H         H         0.48748   0.85553   0.14092   0.106951  
         H         H         0.83739   0.48005   0.36961   0.117700  
         H         H         0.18776   0.62355   0.09888   0.106836  
         H         H         0.53996   0.36356   0.23356   0.118495  
         H         H         0.34164   0.57390   0.36330   0.103305  
         H         H         0.67928   0.23628   0.36503   0.100243  
         H         H         0.45906   0.78058   0.13347   0.103666  
         H         H         0.75754   0.43562   0.40083   0.102524  
         H         H         0.26638   0.66999   0.06879   0.102319  
         H         H         0.58225   0.32888   0.22491   0.105417  
         C         C         0.38173   0.65542   0.16699   0.075918  
         C         C         0.65670   0.29331   0.30394   0.070232  
         C         C         0.37248   0.71684   0.17615   0.068267  
         C         C         0.72292   0.36187   0.28711   0.077732  
         C         C         0.31082   0.64592   0.18260   0.078830  
         C         C         0.65528   0.35905   0.29595   0.069365  
         C         C         0.45665   0.59901   0.18795   0.207389  
         C         C         0.59381   0.15910   0.28369   0.188864  
         C         C         0.42181   0.85014   0.20043   0.200857  
         C         C         0.86090   0.43781   0.24870   0.199973  
         C         C         0.17071   0.56370   0.24601   0.197565  
         C         C         0.58458   0.42160   0.28428   0.194416  
         C         C         0.40807   0.63624   0.16705   0.063422  
         C         C         0.63468   0.24712   0.30301   0.059662  
         C         C         0.38915   0.76225   0.18541   0.057675  
         C         C         0.77001   0.38742   0.27415   0.062941  
         C         C         0.26338   0.61770   0.20108   0.060456  
         C         C         0.63190   0.38086   0.28826   0.060278  
         C         C         0.39851   0.69888   0.16863   -0.189138           
         C         C         0.63415   0.31463   0.30822   -0.180109           
         C         C         0.32900   0.68968   0.18139   -0.182005           
         C         C         0.70097   0.31750   0.29510   -0.174134           
         C         C         0.33797   0.62940   0.17383   -0.180037           
         C         C         0.69979   0.38208   0.28526   -0.166843           
         H         H         0.32588   0.59620   0.16645   0.098705  
         H         H         0.71886   0.30170   0.29439   0.101286  
         H         H         0.43117   0.71805   0.17305   0.100885  
         H         H         0.71811   0.41687   0.26704   0.099599  
         H         H         0.30784   0.70237   0.18887   0.099134  
         H         H         0.59902   0.29606   0.32274   0.101212  
         H         H         0.05899   0.59004   0.37806   0.350252  
         H         H         0.43142   0.42807   0.23339   0.379016  
         H         H         0.53268   0.93862   0.32071   0.347289  
         C         C         0.46620   0.91447   0.26027   0.086120  
         H         H         0.91593   0.41560   0.24833   0.049597  
         H         H         0.97212   0.41286   0.11869   0.347068  
         H         H         0.43294   0.51900   0.22776   0.079244  
         C         C         0.09999   0.54994   0.27588   0.077226  
         H         H         0.60874   0.50295   0.24994   0.081210  
         H         H         0.60328   0.59060   0.29432   0.378274  
         H         H         0.48039   0.89912   0.30287   0.042848  
         C         C         0.46594   0.54252   0.22640   0.082847  
         H         H         0.51597   0.10456   0.28179   0.043736  
         H         H         0.46967   0.06840   0.22981   0.342512  
         H         H         0.11128   0.58324   0.28776   0.048302  
         N         N         0.87018   0.45890   0.76047   -0.299909           
         N         N         0.09603   0.53524   0.75044   -0.284701           
         N         N         0.51633   0.41756   0.81133   -0.291496           
         N         N         0.44421   0.56816   0.74382   -0.264951           
         N         N         0.55690   0.10385   0.81412   -0.299467           
         N         N         0.42189   0.88243   0.72224   -0.301984           
         C         C         0.89614   0.44451   0.75113   0.086793  
         C         C         0.53560   0.45904   0.76269   0.075884  
         C         C         0.52652   0.08228   0.75960   0.085896  
         C         C         0.94016   0.47135   0.75446   -0.001113           
         C         C         0.02486   0.52269   0.76993   -0.018298           
         C         C         0.50725   0.47597   0.77133   -0.035573           
         C         C         0.45513   0.50975   0.76109   -0.049616           
         C         C         0.50820   0.03719   0.76058   -0.038295           
         C         C         0.47443   0.94979   0.75525   -0.010964           
         C         C         0.96936   0.45572   0.73347   0.234283  
         C         C         0.01074   0.48104   0.74055   -0.257539           
         C         C         0.52407   0.52019   0.76550   0.236222  
         C         C         0.49825   0.53636   0.76026   -0.209664           
         C         C         0.46670   0.01126   0.74802   0.252901  
         C         C         0.45038   0.96834   0.74595   -0.211585           
         O         O         0.95473   0.41446   0.70805   -0.461974           
         H         H         0.03422   0.46993   0.71992   0.126738  
         O         O         0.56709   0.54854   0.75791   -0.471461           
         H         H         0.51067   0.57008   0.75850   0.136720  
         O         O         0.44049   0.02649   0.74024   -0.433698           
         H         H         0.41855   0.94829   0.73668   0.141358  
         C         C         0.99535   0.53802   0.79306   0.241600  
         C         C         0.95388   0.51260   0.78620   -0.237524           
         C         C         0.43793   0.46532   0.77080   0.253379  
         C         C         0.46364   0.44902   0.77770   -0.220482           
         C         C         0.51573   0.97558   0.76945   0.251351  
         C         C         0.53166   0.01828   0.77423   -0.244386           
         O         O         0.00966   0.57896   0.82080   -0.454092           
         H         H         0.93072   0.52394   0.80461   0.132285  
         O         O         0.39623   0.43633   0.77329   -0.434141           
         H         H         0.45125   0.41534   0.77952   0.144075  
         O         O         0.53910   0.95690   0.77624   -0.450240           
         H         H         0.56311   0.03862   0.78623   0.128830  
         C         C         0.15745   0.54260   0.79835   -0.152819           
         C         C         0.81370   0.39179   0.71273   -0.166827           
         C         C         0.44523   0.62691   0.61926   -0.146343           
         C         C         0.58499   0.42523   0.81998   -0.170949           
         C         C         0.36702   0.81875   0.68011   -0.142967           
         C         C         0.54199   0.16292   0.85974   -0.188911           
         C         C         0.20229   0.56727   0.78053   -0.122901           
         C         C         0.76950   0.36659   0.72581   -0.114205           
         C         C         0.42205   0.64446   0.59775   -0.119361           
         C         C         0.61009   0.40700   0.81411   -0.120515           
         C         C         0.34750   0.77608   0.66821   -0.132006           
         C         C         0.55966   0.20624   0.85924   -0.118942           
         H         H         0.13443   0.50746   0.86143   0.117069  
         H         H         0.83881   0.38125   0.65647   0.107383  
         H         H         0.48493   0.64566   0.54442   0.119238  
         H         H         0.59541   0.45679   0.84890   0.107838  
         H         H         0.35363   0.83748   0.66102   0.120175  
         H         H         0.50464   0.14120   0.89632   0.103392  
         H         H         0.21323   0.55106   0.83757   0.104849  
         H         H         0.76141   0.33723   0.67681   0.102681  
         H         H         0.44403   0.67737   0.50201   0.106210  
         H         H         0.63973   0.42520   0.83804   0.102671  
         H         H         0.31884   0.76199   0.63756   0.100472  
         H         H         0.53535   0.21722   0.89640   0.106098  
         C         C         0.36635   0.55899   0.83046   -0.185179           
         C         C         0.61816   0.17499   0.78645   -0.147353           
         C         C         0.42239   0.81507   0.73964   -0.168930           
         C         C         0.79465   0.44494   0.82200   -0.153277           
         C         C         0.17007   0.60801   0.65842   -0.171803           
         C         C         0.53068   0.36042   0.77412   -0.152557           
         C         C         0.34327   0.57712   0.81077   -0.123833           
         C         C         0.63580   0.21835   0.78219   -0.115972           
         C         C         0.40293   0.77261   0.72634   -0.128644           
         C         C         0.75017   0.41933   0.83692   -0.125871           
         C         C         0.21561   0.63239   0.63602   -0.125368           
         C         C         0.55664   0.34281   0.76421   -0.123050           
         H         H         0.34450   0.52620   0.92749   0.105107  
         H         H         0.64035   0.16218   0.76170   0.124031  
         H         H         0.45055   0.82891   0.77358   0.107425  
         H         H         0.80504   0.47570   0.85948   0.113906  
         H         H         0.15862   0.62398   0.60318   0.108000  
         H         H         0.49959   0.34258   0.75838   0.120150  
         H         H         0.30335   0.55843   0.89286   0.104478  
         H         H         0.67264   0.23946   0.75099   0.107262  
         H         H         0.41669   0.75491   0.75127   0.104013  
         H         H         0.72539   0.43021   0.88877   0.103387  
         H         H         0.23884   0.66725   0.56426   0.102172  
         H         H         0.54539   0.31094   0.73808   0.105248  
         C         C         0.34669   0.64093   0.68214   0.073940  
         C         C         0.62672   0.28175   0.81217   0.064245  
         C         C         0.34490   0.70637   0.67706   0.068613  
         C         C         0.68958   0.35204   0.80122   0.078454  
         C         C         0.28072   0.63831   0.67816   0.079888  
         C         C         0.62247   0.34557   0.78958   0.076219  
         C         C         0.41793   0.58365   0.73345   0.203381  
         C         C         0.57145   0.14663   0.81870   0.195715  
         C         C         0.40509   0.83940   0.71450   0.186956  
         C         C         0.82705   0.43140   0.76427   0.207984  
         C         C         0.14009   0.56236   0.73926   0.200320  
         C         C         0.54466   0.40226   0.80018   0.202637  
         C         C         0.37065   0.62022   0.69394   0.064274  
         C         C         0.60738   0.23546   0.81656   0.057729  
         C         C         0.36519   0.75182   0.68923   0.059104  
         C         C         0.73620   0.37928   0.79037   0.062474  
         C         C         0.23307   0.61280   0.69586   0.052392  
         C         C         0.59682   0.36530   0.78569   0.054344  
         C         C         0.36653   0.68475   0.68048   -0.180459           
         C         C         0.60407   0.30140   0.79858   -0.185638           
         C         C         0.30207   0.68245   0.67464   -0.173332           
         C         C         0.66859   0.30734   0.81961   -0.183646           
         C         C         0.30398   0.61813   0.67988   -0.174742           
         C         C         0.66599   0.37042   0.78628   -0.182850           
         H         H         0.28892   0.58434   0.67779   0.101088  
         H         H         0.68478   0.29228   0.84418   0.104176  
         H         H         0.39858   0.70136   0.68981   0.102511  
         H         H         0.68272   0.40514   0.76740   0.100882  
         H         H         0.28324   0.69768   0.68071   0.100921  
         H         H         0.57167   0.28191   0.79302   0.099281  
         H         H         0.98528   0.58439   0.83992   0.373947  
         H         H         0.38362   0.45197   0.75173   0.345422  
         H         H         0.56313   0.97680   0.80602   0.370844  
         C         C         0.45757   0.90506   0.74897   0.076809  
         H         H         0.88630   0.41144   0.74372   0.070792  
         H         H         0.98307   0.41242   0.64728   0.374522  
         H         H         0.39792   0.50688   0.73746   0.046092  
         C         C         0.06836   0.54892   0.77719   0.078910  
         H         H         0.57440   0.48334   0.70628   0.065981  
         H         H         0.56460   0.53685   0.87399   0.346626  
         H         H         0.47693   0.89252   0.76628   0.075742  
         C         C         0.42981   0.52805   0.74868   0.070753  
         H         H         0.51474   0.09851   0.70486   0.047918  
         H         H         0.45247   0.05508   0.76317   0.343773  
         H         H         0.07596   0.58027   0.80790   0.079694 

