
##########################################################################
#               Crystallographic Information Format file
#               Produced by PyCifRW module
#
#  This is a CIF file.  CIF has been adopted by the International
#  Union of Crystallography as the standard for data archiving and
#  transmission.
#
#  For information on this file format, follow the CIF links at
#  http://www.iucr.org
##########################################################################

data_image0

_cell_length_a                          39.0344
_cell_length_b                          33.0843
_cell_length_c                          8.66018
_cell_angle_alpha                       106.855
_cell_angle_beta                        81.9411
_cell_angle_gamma                       89.8612
_symmetry_space_group_name_H-M          'P 1'
_space_group_name_Hall                  'P 1'
loop_
  _atom_site_type_symbol
  _atom_site_label
  _atom_site_fract_x
  _atom_site_fract_y
  _atom_site_fract_z
  _atom_site_charge
         C         C         0.24230   0.79501   0.29008   -0.239907           
         C         C         0.74761   0.28451   0.19509   -0.239276           
         C         C         0.75990   0.21936   0.33143   -0.238108           
         C         C         0.26194   0.70896   0.20737   -0.238574           
         C         C         0.75348   0.79321   0.33879   -0.242987           
         C         C         0.26513   0.29319   0.23416   -0.243040           
         C         C         0.24438   0.21660   0.28612   -0.244281           
         C         C         0.74857   0.70750   0.17433   -0.240045           
         C         C         0.28770   0.73810   0.21278   0.282374  
         C         C         0.78634   0.24644   0.31260   0.275950  
         C         C         0.72109   0.25743   0.21407   0.278938  
         C         C         0.21650   0.76584   0.28308   0.282363  
         C         C         0.72127   0.73557   0.18306   0.278077  
         C         C         0.21915   0.24535   0.27764   0.276101  
         C         C         0.29052   0.26407   0.23912   0.280788  
         C         C         0.78067   0.76513   0.33229   0.279055  
         C         C         0.20104   0.69038   0.23012   0.087228  
         C         C         0.70072   0.19621   0.31071   0.088693  
         C         C         0.80610   0.30960   0.22890   0.083600  
         C         C         0.30332   0.81329   0.25844   0.085607  
         C         C         0.80520   0.69080   0.23684   0.089212  
         C         C         0.30502   0.19371   0.27190   0.083446  
         C         C         0.20440   0.31541   0.24381   0.088093  
         C         C         0.69715   0.80966   0.27022   0.087451  
         C         C         0.27768   0.78200   0.25452   -0.050022           
         C         C         0.78000   0.27976   0.24387   -0.046335           
         C         C         0.72733   0.22438   0.28447   -0.049267           
         C         C         0.22666   0.72190   0.23991   -0.049895           
         C         C         0.72409   0.77927   0.26493   -0.048226           
         C         C         0.22974   0.28458   0.25274   -0.055817           
         C         C         0.27986   0.22502   0.26662   -0.050734           
         C         C         0.77813   0.72148   0.24750   -0.044729           
         N         N         0.33643   0.80290   0.21948   -0.293050           
         N         N         0.83624   0.30712   0.27637   -0.291956           
         N         N         0.67010   0.19870   0.26775   -0.296192           
         N         N         0.16805   0.70090   0.26337   -0.278124           
         N         N         0.66833   0.79826   0.21524   -0.269780           
         N         N         0.17174   0.30718   0.24641   -0.278576           
         N         N         0.33825   0.19978   0.25491   -0.280972           
         N         N         0.83300   0.70106   0.30462   -0.290667           
         N         N         0.05732   0.50437   0.26097   -0.255716           
         N         N         0.55698   0.00136   0.24606   -0.256931           
         N         N         0.94875   0.50324   0.27058   -0.255147           
         N         N         0.44920   0.00032   0.25069   -0.255001           
         H         H         0.03084   0.50573   0.27793   0.274031  
         H         H         0.97523   0.50132   0.24749   0.275262  
         H         H         0.47435   0.00102   0.27130   0.276244  
         C         C         0.07793   0.46975   0.25444   0.180361  
         C         C         0.57769   0.96549   0.22398   0.185191  
         C         C         0.92831   0.53893   0.28756   0.178893  
         C         C         0.43067   0.03312   0.22690   0.183520  
         C         C         0.92858   0.47075   0.29481   0.184152  
         C         C         0.43003   0.96467   0.22923   0.181898  
         C         C         0.07741   0.53760   0.24390   0.178541  
         C         C         0.57694   0.03570   0.24241   0.183727  
         C         C         0.11306   0.48182   0.22989   -0.191517           
         C         C         0.61269   0.97803   0.20103   -0.191791           
         C         C         0.89324   0.52821   0.32509   -0.184734           
         C         C         0.39852   0.01651   0.18116   -0.184175           
         C         C         0.89342   0.48738   0.33385   -0.194216           
         C         C         0.39784   0.97539   0.18639   -0.193836           
         C         C         0.11272   0.52316   0.22724   -0.189684           
         C         C         0.61214   0.01967   0.20428   -0.184177           
         H         H         0.13554   0.46113   0.21380   0.132271  
         H         H         0.63559   0.95802   0.18287   0.130288  
         H         H         0.87100   0.54971   0.34624   0.133313  
         H         H         0.37884   0.03379   0.14651   0.130820  
         H         H         0.87128   0.47062   0.36827   0.132797  
         H         H         0.37706   0.95404   0.16207   0.129672  
         H         H         0.13483   0.54193   0.21195   0.129526  
         H         H         0.63430   0.03737   0.17936   0.129052  
         N         N         0.50338   0.93873   0.24561   -0.407116           
         N         N         0.00330   0.44261   0.27238   -0.412685           
         N         N         0.50310   0.06396   0.26536   -0.405113           
         N         N         0.00256   0.56524   0.26161   -0.401716           
         C         C         0.53162   0.91324   0.24078   0.193782  
         C         C         0.03182   0.41809   0.27250   0.193524  
         C         C         0.47374   0.08937   0.29007   0.190428  
         C         C         0.97443   0.58962   0.25672   0.190352  
         C         C         0.47511   0.91418   0.25382   0.193346  
         C         C         0.97583   0.41646   0.26861   0.196955  
         C         C         0.52903   0.09099   0.31067   0.187938  
         C         C         0.03067   0.58891   0.23969   0.188054  
         C         C         0.52062   0.87141   0.24700   -0.184696           
         C         C         0.02194   0.37582   0.27394   -0.182889           
         C         C         0.48082   0.13356   0.36190   -0.191347           
         C         C         0.98509   0.62903   0.22501   -0.185069           
         C         C         0.48556   0.87280   0.26268   -0.190076           
         C         C         0.98778   0.37394   0.26084   -0.187611           
         C         C         0.51503   0.13443   0.37870   -0.191744           
         C         C         0.02012   0.62860   0.21466   -0.190301           
         H         H         0.53683   0.84451   0.24195   0.126080  
         H         H         0.03858   0.35084   0.28392   0.121557  
         H         H         0.46212   0.16007   0.39834   0.127685  
         H         H         0.96792   0.65277   0.20845   0.126438  
         H         H         0.46875   0.84786   0.27737   0.118167  
         H         H         0.97276   0.34612   0.24731   0.126683  
         H         H         0.52899   0.16176   0.43476   0.125971  
         H         H         0.03747   0.65215   0.18920   0.126052  
         C         C         0.06670   0.42988   0.26339   -0.069881           
         C         C         0.56670   0.92493   0.22734   -0.066223           
         C         C         0.93951   0.57871   0.27736   -0.063987           
         C         C         0.44047   0.07541   0.25551   -0.067667           
         C         C         0.94047   0.42911   0.28067   -0.074505           
         C         C         0.44076   0.92512   0.24157   -0.069804           
         C         C         0.06553   0.57727   0.23836   -0.066820           
         C         C         0.56488   0.07858   0.28458   -0.075604           
         C         C         0.09410   0.39793   0.25687   0.066266  
         C         C         0.59397   0.89284   0.22153   0.061649  
         C         C         0.91208   0.61086   0.28615   0.076998  
         C         C         0.41355   0.10713   0.25651   0.068793  
         C         C         0.91361   0.39750   0.27840   0.070519  
         C         C         0.41382   0.89327   0.23485   0.074956  
         C         C         0.09199   0.60947   0.23604   0.071505  
         C         C         0.59118   0.11123   0.29672   0.066041  
         C         C         0.58873   0.86709   0.32519   -0.118236           
         C         C         0.12010   0.40865   0.35705   -0.127427           
         C         C         0.37930   0.10730   0.33591   -0.116482           
         C         C         0.90913   0.65140   0.39979   -0.120450           
         C         C         0.41917   0.85137   0.13181   -0.117336           
         C         C         0.88498   0.39784   0.19535   -0.122155           
         C         C         0.58601   0.14826   0.25118   -0.120452           
         C         C         0.12089   0.60258   0.11313   -0.123173           
         C         C         0.42154   0.13955   0.18338   -0.124518           
         C         C         0.88803   0.60092   0.17558   -0.132766           
         C         C         0.62556   0.88611   0.11602   -0.119869           
         C         C         0.09555   0.35633   0.15064   -0.112052           
         C         C         0.62343   0.10673   0.34914   -0.113175           
         C         C         0.08876   0.64795   0.36208   -0.119121           
         C         C         0.38133   0.90450   0.33389   -0.125513           
         C         C         0.91521   0.36539   0.35460   -0.125728           
         H         H         0.11855   0.43989   0.44493   0.097946  
         H         H         0.56596   0.87310   0.41657   0.100129  
         H         H         0.92694   0.65982   0.48898   0.107178  
         H         H         0.37304   0.08466   0.40405   0.107431  
         H         H         0.88358   0.42046   0.12705   0.104375  
         H         H         0.44363   0.84201   0.05089   0.116255  
         H         H         0.12268   0.57405   0.01014   0.101870  
         H         H         0.56226   0.15274   0.20479   0.113614  
         H         H         0.89094   0.57018   0.08438   0.097112  
         H         H         0.44756   0.13968   0.11897   0.105027  
         H         H         0.07712   0.34769   0.06467   0.116633  
         H         H         0.63042   0.90300   0.02583   0.098108  
         H         H         0.06647   0.65385   0.45747   0.105942  
         H         H         0.62749   0.08160   0.40268   0.110634  
         H         H         0.93529   0.36553   0.42926   0.103339  
         H         H         0.37715   0.93625   0.41773   0.102109  
         C         C         0.14659   0.37985   0.35121   -0.188927           
         C         C         0.61206   0.83454   0.31629   -0.170357           
         C         C         0.88292   0.68047   0.40284   -0.157024           
         C         C         0.35417   0.13738   0.33839   -0.186662           
         C         C         0.85913   0.36909   0.19335   -0.181748           
         C         C         0.39354   0.82212   0.13051   -0.160519           
         C         C         0.14646   0.63211   0.11955   -0.187109           
         C         C         0.61149   0.17763   0.25223   -0.158499           
         C         C         0.86210   0.62981   0.17650   -0.176775           
         C         C         0.39663   0.17010   0.18719   -0.153309           
         C         C         0.12089   0.32661   0.14984   -0.170979           
         C         C         0.65066   0.85666   0.11968   -0.193562           
         C         C         0.11376   0.67794   0.36808   -0.160961           
         C         C         0.64977   0.13429   0.33973   -0.184967           
         C         C         0.89050   0.33502   0.34494   -0.153770           
         C         C         0.35541   0.87573   0.33134   -0.181953           
         H         H         0.16549   0.38844   0.43501   0.112214  
         H         H         0.60658   0.81450   0.39498   0.120687  
         H         H         0.87997   0.71141   0.49352   0.124503  
         H         H         0.32864   0.13781   0.40843   0.112271  
         H         H         0.83808   0.37062   0.12543   0.112162  
         H         H         0.39794   0.78982   0.05072   0.126850  
         H         H         0.16817   0.62689   0.02105   0.112950  
         H         H         0.60690   0.20531   0.21280   0.127827  
         H         H         0.84525   0.62149   0.08298   0.104936  
         H         H         0.40296   0.19418   0.12600   0.124081  
         H         H         0.12187   0.29464   0.06769   0.128656  
         H         H         0.67519   0.85289   0.04032   0.109277  
         H         H         0.11154   0.70717   0.46795   0.126659  
         H         H         0.67416   0.12843   0.37824   0.113510  
         H         H         0.89238   0.31088   0.40612   0.125060  
         H         H         0.33124   0.88506   0.41491   0.111803  
         C         C         0.14714   0.33818   0.24796   0.202283  
         C         C         0.64390   0.82981   0.21676   0.206130  
         C         C         0.85878   0.67012   0.29246   0.199202  
         C         C         0.36228   0.16906   0.26158   0.201971  
         C         C         0.86131   0.33692   0.26853   0.198374  
         C         C         0.36104   0.83395   0.22803   0.201537  
         C         C         0.14339   0.66987   0.24906   0.199654  
         C         C         0.64451   0.17037   0.28916   0.202520  
         H         H         0.23469   0.82846   0.32353   0.133782  
         O         O         0.32128   0.72429   0.17806   -0.423421           
         H         H         0.21033   0.65718   0.19656   0.076469  
         H         H         0.33528   0.75023   0.18196   0.305529  
         H         H         0.74300   0.30967   0.14144   0.132777  
         O         O         0.81694   0.24132   0.36220   -0.425479           
         H         H         0.70748   0.17280   0.37008   0.074394  
         H         H         0.83163   0.26488   0.34136   0.303160  
         H         H         0.76441   0.19453   0.38629   0.132965  
         O         O         0.69026   0.26269   0.16741   -0.420000           
         H         H         0.79916   0.33489   0.17887   0.076606  
         H         H         0.67515   0.23968   0.19494   0.300730  
         H         H         0.26952   0.67559   0.17689   0.135970  
         O         O         0.18284   0.77945   0.31670   -0.424621           
         H         H         0.29375   0.84643   0.29335   0.073596  
         H         H         0.16904   0.75302   0.30593   0.304921  
         H         H         0.75519   0.82648   0.40278   0.129329  
         O         O         0.69292   0.72085   0.11443   -0.424124           
         H         H         0.80084   0.65793   0.17103   0.074111  
         H         H         0.67656   0.74627   0.13495   0.310579  
         H         H         0.27315   0.32298   0.21339   0.136936  
         O         O         0.18551   0.23553   0.29190   -0.427744           
         H         H         0.29492   0.16396   0.28720   0.074174  
         H         H         0.17233   0.25958   0.27175   0.306959  
         H         H         0.23624   0.18701   0.30752   0.136262  
         O         O         0.32425   0.27299   0.21783   -0.420870           
         H         H         0.21358   0.34586   0.23158   0.080133  
         H         H         0.33768   0.24773   0.22808   0.307669  
         H         H         0.74685   0.67416   0.11060   0.131567  
         O         O         0.80853   0.77958   0.40396   -0.420588           
         H         H         0.70170   0.84322   0.32367   0.079524  
         H         H         0.82428   0.75394   0.38906   0.309959  
         H         H         0.53052   0.00255   0.26221   0.272960  
         C         C         0.24033   0.78928   0.79787   -0.237088           
         C         C         0.73446   0.28975   0.70948   -0.238419           
         C         C         0.74994   0.21437   0.77631   -0.241830           
         C         C         0.25848   0.70259   0.68976   -0.240579           
         C         C         0.75851   0.78737   0.74445   -0.235190           
         C         C         0.25934   0.28263   0.68466   -0.236035           
         C         C         0.23908   0.21762   0.82183   -0.240880           
         C         C         0.74072   0.70467   0.73642   -0.234385           
         C         C         0.28465   0.73111   0.68861   0.280421  
         C         C         0.77625   0.24226   0.76774   0.280568  
         C         C         0.70816   0.26175   0.71748   0.278019  
         C         C         0.21408   0.76064   0.79150   0.280143  
         C         C         0.71561   0.73231   0.71896   0.280649  
         C         C         0.21361   0.24442   0.80125   0.270830  
         C         C         0.28481   0.25547   0.70253   0.270008  
         C         C         0.78370   0.75976   0.76166   0.276864  
         C         C         0.19748   0.68512   0.73099   0.086098  
         C         C         0.68985   0.19342   0.76395   0.081438  
         C         C         0.79406   0.31184   0.73115   0.082989  
         C         C         0.30167   0.80626   0.74910   0.084428  
         C         C         0.79978   0.68813   0.77560   0.087759  
         C         C         0.29978   0.19278   0.79002   0.083142  
         C         C         0.19841   0.30671   0.71165   0.093491  
         C         C         0.69883   0.80496   0.71776   0.085821  
         C         C         0.27540   0.77543   0.74588   -0.048813           
         C         C         0.76827   0.28100   0.73506   -0.044099           
         C         C         0.71606   0.22332   0.75227   -0.047519           
         C         C         0.22335   0.71640   0.73842   -0.051558           
         C         C         0.72463   0.77451   0.72388   -0.052037           
         C         C         0.22400   0.27785   0.73296   -0.054161           
         C         C         0.27452   0.22238   0.77286   -0.049589           
         C         C         0.77458   0.71766   0.75824   -0.051814           
         N         N         0.33422   0.79512   0.69235   -0.281659           
         N         N         0.82558   0.30618   0.75920   -0.296498           
         N         N         0.65794   0.19907   0.74090   -0.292003           
         N         N         0.16431   0.69515   0.76685   -0.291179           
         N         N         0.66654   0.79548   0.70866   -0.287140           
         N         N         0.16547   0.30110   0.73934   -0.271825           
         N         N         0.33294   0.19537   0.74617   -0.286494           
         N         N         0.83145   0.69853   0.79768   -0.291107           
         N         N         0.05248   0.49572   0.73003   -0.257049           
         N         N         0.55100   0.99843   0.77978   -0.256754           
         N         N         0.94430   0.49662   0.72901   -0.255578           
         N         N         0.44406   0.99636   0.75073   -0.257030           
         H         H         0.02616   0.49743   0.73475   0.274709  
         H         H         0.97041   0.49231   0.69075   0.279550  
         H         H         0.46959   0.99810   0.76538   0.273944  
         C         C         0.07171   0.46105   0.73434   0.181699  
         C         C         0.57090   0.96426   0.78476   0.185811  
         C         C         0.92529   0.53410   0.75931   0.180920  
         C         C         0.42375   0.03003   0.74500   0.182887  
         C         C         0.92367   0.46608   0.76786   0.182684  
         C         C         0.42550   0.96007   0.72661   0.177713  
         C         C         0.07343   0.52918   0.72638   0.183109  
         C         C         0.57035   0.03416   0.79809   0.187573  
         C         C         0.10684   0.47375   0.73477   -0.181582           
         C         C         0.60404   0.98017   0.81706   -0.181138           
         C         C         0.89082   0.52678   0.82317   -0.188841           
         C         C         0.39056   0.01391   0.71377   -0.192114           
         C         C         0.88995   0.48596   0.83173   -0.195150           
         C         C         0.39147   0.97180   0.70635   -0.191767           
         C         C         0.10778   0.51505   0.73227   -0.197537           
         C         C         0.60427   0.02164   0.81737   -0.194189           
         H         H         0.12859   0.45338   0.73358   0.131660  
         H         H         0.62492   0.96247   0.83997   0.125913  
         H         H         0.86977   0.55041   0.86197   0.131679  
         H         H         0.36917   0.03216   0.69655   0.131679  
         H         H         0.86819   0.47132   0.88207   0.134222  
         H         H         0.37096   0.94991   0.68442   0.130435  
         H         H         0.13043   0.53367   0.72977   0.130012  
         H         H         0.62594   0.04171   0.83373   0.131183  
         N         N         0.49951   0.93326   0.73473   -0.401939           
         N         N         0.99711   0.43382   0.72655   -0.408247           
         N         N         0.49653   0.06002   0.77621   -0.406047           
         N         N         0.00004   0.55699   0.72154   -0.407680           
         C         C         0.52821   0.90751   0.71980   0.190228  
         C         C         0.02537   0.40777   0.71665   0.192594  
         C         C         0.46775   0.08564   0.79051   0.188682  
         C         C         0.97266   0.58135   0.70819   0.194114  
         C         C         0.47268   0.90644   0.70543   0.189409  
         C         C         0.96915   0.40833   0.71618   0.191992  
         C         C         0.52307   0.08688   0.80881   0.194292  
         C         C         0.02871   0.57987   0.70052   0.191148  
         C         C         0.51957   0.86307   0.67053   -0.190216           
         C         C         0.01511   0.36440   0.69608   -0.182704           
         C         C         0.47600   0.13015   0.84008   -0.189253           
         C         C         0.98450   0.61921   0.66731   -0.183407           
         C         C         0.48491   0.86259   0.66798   -0.187408           
         C         C         0.98065   0.36436   0.68730   -0.193754           
         C         C         0.51043   0.13094   0.85287   -0.189707           
         C         C         0.01948   0.61845   0.66406   -0.189262           
         H         H         0.53740   0.83585   0.63975   0.124204  
         H         H         0.03191   0.33766   0.68953   0.124600  
         H         H         0.45799   0.15694   0.86599   0.126588  
         H         H         0.96850   0.64206   0.63938   0.120604  
         H         H         0.46926   0.83517   0.63962   0.124499  
         H         H         0.96499   0.33689   0.66268   0.124721  
         H         H         0.52529   0.15857   0.89230   0.128131  
         H         H         0.03742   0.64103   0.63680   0.117087  
         C         C         0.05994   0.42025   0.72711   -0.062156           
         C         C         0.56162   0.92158   0.75127   -0.070176           
         C         C         0.93734   0.57275   0.73879   -0.067583           
         C         C         0.43396   0.07204   0.76703   -0.071329           
         C         C         0.93384   0.42326   0.74516   -0.079960           
         C         C         0.43773   0.91868   0.71008   -0.062418           
         C         C         0.06295   0.56872   0.71347   -0.070117           
         C         C         0.55836   0.07510   0.80348   -0.068428           
         C         C         0.08708   0.38860   0.72797   0.064181  
         C         C         0.58915   0.88958   0.74225   0.064247  
         C         C         0.91036   0.60606   0.75717   0.070960  
         C         C         0.40740   0.10402   0.76630   0.073059  
         C         C         0.90537   0.39400   0.75402   0.066697  
         C         C         0.41098   0.88616   0.70100   0.072526  
         C         C         0.08948   0.60109   0.72048   0.074354  
         C         C         0.58399   0.10798   0.79745   0.067147  
         C         C         0.58244   0.85511   0.80569   -0.116524           
         C         C         0.10914   0.39858   0.84750   -0.126209           
         C         C         0.37416   0.10778   0.85928   -0.122231           
         C         C         0.91196   0.64822   0.85427   -0.116891           
         C         C         0.41182   0.84890   0.57030   -0.122212           
         C         C         0.87408   0.39882   0.69389   -0.113951           
         C         C         0.58022   0.13503   0.70035   -0.125243           
         C         C         0.12147   0.59307   0.61654   -0.126283           
         C         C         0.41509   0.13277   0.67532   -0.127353           
         C         C         0.88110   0.59560   0.67813   -0.127857           
         C         C         0.62312   0.89110   0.66295   -0.113929           
         C         C         0.09288   0.34900   0.60791   -0.113131           
         C         C         0.61245   0.11451   0.88439   -0.124023           
         C         C         0.08324   0.64131   0.83609   -0.120116           
         C         C         0.38372   0.89219   0.83161   -0.124711           
         C         C         0.90785   0.35931   0.81694   -0.116850           
         H         H         0.10457   0.42831   0.94460   0.097613  
         H         H         0.55718   0.85392   0.87513   0.112882  
         H         H         0.93379   0.65704   0.92083   0.115861  
         H         H         0.36842   0.08805   0.93999   0.103673  
         H         H         0.87178   0.42340   0.63497   0.104807  
         H         H         0.43188   0.84378   0.46505   0.101336  
         H         H         0.12610   0.56306   0.52085   0.101541  
         H         H         0.55910   0.13035   0.62836   0.102309  
         H         H         0.87994   0.56365   0.59952   0.097645  
         H         H         0.44047   0.13013   0.60167   0.101212  
         H         H         0.07781   0.34137   0.50761   0.105604  
         H         H         0.62882   0.91522   0.60188   0.110619  
         H         H         0.05873   0.64793   0.91817   0.111303  
         H         H         0.61461   0.09799   0.97415   0.101527  
         H         H         0.93010   0.35573   0.87527   0.114657  
         H         H         0.38336   0.92030   0.93499   0.096759  
         C         C         0.13624   0.37103   0.84626   -0.186259           
         C         C         0.60753   0.82341   0.78577   -0.157821           
         C         C         0.88561   0.67831   0.87001   -0.164211           
         C         C         0.34948   0.13779   0.85672   -0.184346           
         C         C         0.84720   0.37166   0.69761   -0.185541           
         C         C         0.38684   0.81892   0.57126   -0.160420           
         C         C         0.14649   0.62331   0.62990   -0.183369           
         C         C         0.60362   0.16601   0.68796   -0.153371           
         C         C         0.85497   0.62534   0.69162   -0.184629           
         C         C         0.39064   0.16336   0.67431   -0.150226           
         C         C         0.11857   0.32012   0.61119   -0.177467           
         C         C         0.64896   0.86123   0.65335   -0.191400           
         C         C         0.10795   0.67190   0.84895   -0.158102           
         C         C         0.63662   0.14422   0.86800   -0.183385           
         C         C         0.88185   0.33047   0.81188   -0.159067           
         C         C         0.35824   0.86285   0.83282   -0.181875           
         H         H         0.15266   0.37907   0.94147   0.113173  
         H         H         0.60174   0.79715   0.83568   0.127487  
         H         H         0.88668   0.71046   0.94873   0.127585  
         H         H         0.32466   0.14084   0.93489   0.109244  
         H         H         0.82439   0.37650   0.64490   0.112918  
         H         H         0.38757   0.79046   0.46864   0.124529  
         H         H         0.17053   0.61660   0.54462   0.111450  
         H         H         0.60040   0.18562   0.60894   0.116929  
         H         H         0.83407   0.61686   0.61923   0.110867  
         H         H         0.39666   0.18449   0.59931   0.121331  
         H         H         0.12288   0.28968   0.51795   0.127513  
         H         H         0.67469   0.86337   0.59049   0.101841  
         H         H         0.10311   0.70250   0.94128   0.126629  
         H         H         0.65716   0.14952   0.94337   0.108469  
         H         H         0.88462   0.30385   0.86001   0.125579  
         H         H         0.33839   0.86774   0.93912   0.110329  
         C         C         0.14075   0.33108   0.72980   0.199532  
         C         C         0.64165   0.82652   0.71348   0.205441  
         C         C         0.85657   0.66733   0.78907   0.202426  
         C         C         0.35704   0.16565   0.76147   0.199026  
         C         C         0.85069   0.33625   0.75493   0.197783  
         C         C         0.35922   0.82584   0.70073   0.199448  
         C         C         0.14027   0.66318   0.74802   0.200277  
         C         C         0.63330   0.16981   0.76558   0.202433  
         H         H         0.23337   0.82298   0.84194   0.135835  
         O         O         0.31782   0.71654   0.63362   -0.423135           
         H         H         0.20707   0.65198   0.69438   0.071616  
         H         H         0.33186   0.74248   0.63844   0.307161  
         H         H         0.72866   0.31881   0.68126   0.135764  
         O         O         0.80827   0.23269   0.79224   -0.420516           
         H         H         0.69800   0.16506   0.79291   0.075535  
         H         H         0.82276   0.25765   0.78363   0.306199  
         H         H         0.75567   0.18539   0.80523   0.135201  
         O         O         0.67603   0.27116   0.69217   -0.422994           
         H         H         0.78567   0.34065   0.70588   0.077512  
         H         H         0.66152   0.24648   0.70245   0.308581  
         H         H         0.26558   0.66891   0.65046   0.133029  
         O         O         0.18062   0.77510   0.83612   -0.421030           
         H         H         0.29307   0.83971   0.79848   0.076133  
         H         H         0.16638   0.74909   0.82168   0.307257  
         H         H         0.76547   0.81940   0.74756   0.136584  
         O         O         0.68334   0.71914   0.70015   -0.422302           
         H         H         0.79141   0.65609   0.76843   0.074385  
         H         H         0.66929   0.74482   0.69785   0.304903  
         H         H         0.26720   0.30740   0.62938   0.134776  
         O         O         0.17976   0.23793   0.84440   -0.426769           
         H         H         0.28962   0.16723   0.83832   0.074989  
         H         H         0.16630   0.26001   0.81202   0.300236  
         H         H         0.23112   0.19235   0.87476   0.136983  
         O         O         0.31842   0.26048   0.65003   -0.419306           
         H         H         0.20793   0.33346   0.66963   0.083461  
         H         H         0.33209   0.23750   0.67470   0.305039  
         H         H         0.73365   0.67291   0.73622   0.137866  
         O         O         0.81593   0.77292   0.78152   -0.420665           
         H         H         0.70709   0.83725   0.72912   0.072743  
         H         H         0.82922   0.74787   0.79513   0.301089  
         H         H         0.52580   0.99697   0.76024   0.272165 

