
##########################################################################
#               Crystallographic Information Format file
#               Produced by PyCifRW module
#
#  This is a CIF file.  CIF has been adopted by the International
#  Union of Crystallography as the standard for data archiving and
#  transmission.
#
#  For information on this file format, follow the CIF links at
#  http://www.iucr.org
##########################################################################

data_image0

_cell_length_a                          25.8122
_cell_length_b                          25.6434
_cell_length_c                          8.90858
_cell_angle_alpha                       94.1075
_cell_angle_beta                        101.75
_cell_angle_gamma                       96.1486
_symmetry_space_group_name_H-M          'P 1'
_space_group_name_Hall                  'P 1'
loop_
  _atom_site_type_symbol
  _atom_site_label
  _atom_site_fract_x
  _atom_site_fract_y
  _atom_site_fract_z
  _atom_site_charge
         C         C         0.49027   0.54635   0.18655   0.203947  
         C         C         0.50496   0.44012   0.19080   0.185487  
         C         C         0.94957   0.02860   0.26888   0.281079  
         C         C         0.05622   0.02468   0.26012   0.215890  
         O         O         0.48203   0.59860   0.19523   -0.428687           
         H         H         0.51433   0.61990   0.18438   0.362319  
         O         O         0.51382   0.38750   0.19647   -0.419614           
         H         H         0.48432   0.36935   0.23298   0.360435  
         O         O         0.89588   0.02802   0.26637   -0.441492           
         H         H         0.88882   0.06100   0.31426   0.361617  
         O         O         0.11119   0.02352   0.26968   -0.180886           
         H         H         0.12730   0.03880   0.42383   0.017118  
         C         C         0.53973   0.53088   0.17416   -0.317680           
         C         C         0.45471   0.45539   0.19186   -0.319830           
         C         C         0.98545   0.07519   0.30116   -0.226660           
         C         C         0.02062   0.97846   0.22982   -0.175453           
         C         C         0.54727   0.47765   0.17793   0.179688  
         C         C         0.44699   0.50845   0.19095   0.176578  
         C         C         0.03908   0.07280   0.29720   -0.186529           
         C         C         0.96685   0.98015   0.23252   -0.195640           
         H         H         0.57270   0.55997   0.16514   0.156746  
         H         H         0.42118   0.42641   0.19580   0.150739  
         H         H         0.97138   0.11248   0.33169   0.120088  
         H         H         0.03617   0.94167   0.20820   0.131048  
         C         C         0.61822   0.02052   0.24221   0.183867  
         C         C         0.37530   0.95746   0.25664   0.180460  
         C         C         0.57332   0.09170   0.25557   0.180696  
         C         C         0.42297   0.88718   0.28117   0.177778  
         C         C         0.65496   0.06712   0.24867   -0.185943           
         C         C         0.33969   0.91154   0.26606   -0.188185           
         C         C         0.62770   0.11021   0.25410   -0.192618           
         C         C         0.36866   0.86946   0.28362   -0.193012           
         H         H         0.69693   0.06669   0.24960   0.130724  
         H         H         0.29742   0.91114   0.26085   0.131468  
         H         H         0.64424   0.15103   0.25698   0.133196  
         H         H         0.35366   0.82944   0.29659   0.129114  
         N         N         0.53838   0.92688   0.26640   -0.401637           
         N         N         0.45595   0.05220   0.24459   -0.405624           
         C         C         0.58859   0.92396   0.23847   0.192561  
         C         C         0.40305   0.05371   0.24831   0.193583  
         C         C         0.47789   0.10418   0.25868   0.193110  
         C         C         0.51753   0.87535   0.27278   0.186113  
         C         C         0.59802   0.86888   0.21726   -0.189943           
         C         C         0.39174   0.10804   0.27019   -0.180220           
         C         C         0.43808   0.13948   0.27775   -0.199944           
         C         C         0.55522   0.83899   0.24650   -0.192315           
         H         H         0.63261   0.85515   0.18313   0.125453  
         H         H         0.35351   0.11942   0.28459   0.127017  
         H         H         0.44407   0.18232   0.29732   0.119446  
         H         H         0.54869   0.79621   0.24199   0.120418  
         C         C         0.62804   0.96701   0.23296   -0.073472           
         C         C         0.36370   0.00998   0.24470   -0.075094           
         C         C         0.53190   0.12283   0.26387   -0.076887           
         C         C         0.46538   0.85637   0.28797   -0.075232           
         C         C         0.68320   0.95489   0.23706   0.085751  
         C         C         0.30747   0.02091   0.22912   0.089516  
         C         C         0.54680   0.18089   0.27949   0.100009  
         C         C         0.45493   0.79906   0.30547   0.098080  
         C         C         0.70395   0.91588   0.32785   -0.128118           
         C         C         0.27554   0.00302   0.32884   -0.150471           
         C         C         0.28532   0.05324   0.11678   -0.147649           
         C         C         0.71850   0.98208   0.15659   -0.164546           
         C         C         0.51816   0.21436   0.18309   -0.143959           
         C         C         0.41349   0.76524   0.20682   -0.151276           
         C         C         0.48909   0.77705   0.42099   -0.145755           
         C         C         0.59053   0.20461   0.39441   -0.148183           
         H         H         0.67759   0.89318   0.38615   0.109587  
         H         H         0.29249   0.98100   0.42225   0.094109  
         H         H         0.30994   0.06745   0.04001   0.096307  
         H         H         0.70208   0.00561   0.06569   0.104616  
         H         H         0.48467   0.19648   0.09245   0.116186  
         H         H         0.38959   0.78151   0.11079   0.109516  
         H         H         0.52141   0.80338   0.49435   0.100500  
         H         H         0.61151   0.17974   0.47425   0.103613  
         C         C         0.75678   0.90576   0.34330   -0.057739           
         C         C         0.22312   0.01319   0.30993   -0.056088           
         C         C         0.23272   0.06265   0.09697   -0.060993           
         C         C         0.77270   0.97685   0.18831   -0.066030           
         C         C         0.53295   0.26870   0.19911   -0.055375           
         C         C         0.40487   0.71217   0.22894   -0.048758           
         C         C         0.48096   0.72425   0.44253   -0.054134           
         C         C         0.60561   0.25890   0.40846   -0.047330           
         H         H         0.76986   0.87197   0.40180   0.098145  
         H         H         0.19930   0.99805   0.38696   0.083504  
         H         H         0.21656   0.08557   0.00441   0.081228  
         H         H         0.79987   -0.00029  0.13249   0.094846  
         H         H         0.51136   0.29359   0.12095   0.098953  
         H         H         0.37284   0.68658   0.15073   0.098036  
         H         H         0.50702   0.70843   0.53498   0.094325  
         H         H         0.63920   0.27705   0.49858   0.102685  
         C         C         0.79469   0.94336   0.29902   -0.058179           
         C         C         0.19930   0.04096   0.18924   -0.101836           
         C         C         0.57754   0.29264   0.31189   -0.101389           
         C         C         0.43799   0.69089   0.34950   -0.095456           
         O         O         0.59396   0.45773   0.16511   -0.248138           
         O         O         0.39783   0.52727   0.18248   -0.243713           
         H         H         0.06776   0.10840   0.32365   0.135814  
         H         H         0.93818   0.94444   0.21428   0.137509  
         C         C         0.35919   0.50686   0.25620   0.571840  
         C         C         0.31413   0.54020   0.23264   -0.282564           
         C         C         0.26307   0.51165   0.26378   -0.276844           
         C         C         0.21781   0.54392   0.26492   0.616579  
         O         O         0.36275   0.46880   0.33027   -0.456364           
         H         H         0.30877   0.55355   0.11683   0.131332  
         H         H         0.33046   0.57618   0.31241   0.079799  
         H         H         0.27174   0.49592   0.37648   0.136836  
         H         H         0.24705   0.47654   0.18230   0.137411  
         O         O         0.23287   0.59752   0.28070   -0.487928           
         O         O         0.17122   0.52559   0.25181   -0.500231           
         H         H         0.19958   0.61274   0.27970   0.375366  
         C         C         0.64407   0.48411   0.23014   0.590630  
         C         C         0.68544   0.45023   0.20346   -0.284666           
         C         C         0.74270   0.47795   0.25474   -0.267756           
         C         C         0.78537   0.44451   0.22856   0.628416  
         O         O         0.65155   0.52717   0.30732   -0.468967           
         H         H         0.67524   0.43496   0.08125   0.088360  
         H         H         0.67941   0.41482   0.26544   0.083698  
         H         H         0.75186   0.49052   0.37902   0.136229  
         H         H         0.74883   0.51378   0.19693   0.129106  
         O         O         0.77543   0.39335   0.26441   -0.486516           
         O         O         0.82459   0.45959   0.18024   -0.508324           
         H         H         0.80615   0.37665   0.24661   0.366309  
         B         B         0.60735   0.34994   0.34102   -0.001928           
         B         B         0.41645   0.63584   0.38358   0.025037  
         B         B         0.13851   0.02947   0.12623   -0.059189           
         B         B         0.84035   0.95110   0.43514   -0.119792           
         N         N         0.56938   0.03743   0.24759   -0.250509           
         N         N         0.42504   0.94074   0.26612   -0.258625           
         H         H         0.53525   0.01296   0.24821   0.272447  
         H         H         0.45830   0.96566   0.26130   0.270393  
         C         C         0.49225   0.55909   0.70241   0.198949  
         C         C         0.50356   0.45284   0.73603   0.201663  
         C         C         0.95482   0.98402   0.73827   0.246058  
         C         C         0.06027   0.00247   0.74096   0.220589  
         O         O         0.48634   0.61199   0.69537   -0.428039           
         H         H         0.52073   0.63112   0.69297   0.358184  
         O         O         0.51072   0.40077   0.75395   -0.419079           
         H         H         0.48603   0.38646   0.81519   0.366702  
         O         O         0.89884   0.97544   0.74394   -0.196056           
         H         H         0.89152   -0.00052  0.82361   0.393897  
         O         O         0.11618   0.01205   0.75222   -0.191486           
         H         H         0.13201   0.02690   0.88488   0.105502  
         C         C         0.54008   0.53982   0.69256   -0.314397           
         C         C         0.45493   0.47144   0.74130   -0.322085           
         C         C         0.97759   0.03620   0.74357   -0.182818           
         C         C         0.03716   0.95079   0.74044   -0.159069           
         C         C         0.54581   0.48680   0.70779   0.171510  
         C         C         0.44869   0.52413   0.72228   0.186643  
         C         C         0.03227   0.04543   0.74733   -0.165242           
         C         C         0.98261   0.94075   0.73900   -0.154816           
         H         H         0.57348   0.56599   0.67262   0.151496  
         H         H         0.42148   0.44554   0.76085   0.154872  
         H         H         0.95290   0.06806   0.74256   0.138675  
         H         H         0.06213   0.91941   0.74107   0.144659  
         C         C         0.62263   0.03944   0.74388   0.184271  
         C         C         0.38735   0.97178   0.77924   0.183137  
         C         C         0.57526   0.10798   0.75224   0.182554  
         C         C         0.43657   0.90334   0.78776   0.180722  
         C         C         0.65845   0.08675   0.75333   -0.186204           
         C         C         0.36063   0.92981   0.84317   -0.188688           
         C         C         0.62961   0.12850   0.75575   -0.196685           
         C         C         0.38983   0.88789   0.84434   -0.186737           
         H         H         0.70057   0.08879   0.75511   0.134871  
         H         H         0.32484   0.93188   0.88760   0.130732  
         H         H         0.64347   0.16990   0.75614   0.133924  
         H         H         0.38150   0.84965   0.88374   0.128063  
         N         N         0.54795   0.94290   0.75194   -0.403692           
         N         N         0.45984   0.06510   0.73350   -0.408892           
         C         C         0.59898   0.94231   0.73096   0.193041  
         C         C         0.40492   0.06217   0.70501   0.190706  
         C         C         0.47733   0.11638   0.71756   0.197186  
         C         C         0.52873   0.89088   0.75505   0.183907  
         C         C         0.61148   0.88836   0.71078   -0.179654           
         C         C         0.38728   0.11145   0.65320   -0.187944           
         C         C         0.43243   0.14615   0.66897   -0.192218           
         C         C         0.56832   0.85616   0.73084   -0.192465           
         H         H         0.64787   0.87645   0.68460   0.124921  
         H         H         0.34663   0.11845   0.60526   0.127013  
         H         H         0.43515   0.18683   0.64334   0.119967  
         H         H         0.56303   0.81330   0.72954   0.122982  
         C         C         0.63531   0.98759   0.73123   -0.072445           
         C         C         0.36967   0.02066   0.74065   -0.086904           
         C         C         0.53184   0.13712   0.74488   -0.080149           
         C         C         0.47759   0.87214   0.77678   -0.070319           
         C         C         0.68970   0.98109   0.71220   0.079118  
         C         C         0.31281   0.02724   0.73528   0.078264  
         C         C         0.54648   0.19490   0.77069   0.102484  
         C         C         0.46572   0.81545   0.79535   0.099020  
         C         C         0.72273   0.94747   0.79378   -0.139329           
         C         C         0.29613   0.07662   0.77269   -0.119938           
         C         C         0.27285   0.98343   0.69119   -0.127035           
         C         C         0.71058   0.00973   0.60518   -0.140121           
         C         C         0.52512   0.23059   0.66942   -0.149165           
         C         C         0.42201   0.78405   0.69862   -0.145935           
         C         C         0.49952   0.79230   0.90840   -0.150424           
         C         C         0.58475   0.21618   0.90356   -0.147896           
         H         H         0.70718   0.92534   0.87781   0.103504  
         H         H         0.32653   0.10981   0.82274   0.115432  
         H         H         0.28387   0.94482   0.66033   0.107999  
         H         H         0.68407   0.03242   0.53292   0.093200  
         H         H         0.49876   0.21442   0.56162   0.103547  
         H         H         0.39879   0.80217   0.60495   0.111204  
         H         H         0.53348   0.81742   0.97898   0.107770  
         H         H         0.60144   0.18931   0.98308   0.104552  
         C         C         0.77391   0.94246   0.77008   -0.102657           
         C         C         0.24226   0.08336   0.74540   -0.070839           
         C         C         0.21957   0.98996   0.67610   -0.072239           
         C         C         0.76215   0.00741   0.58586   -0.077375           
         C         C         0.53975   0.28479   0.69863   -0.051528           
         C         C         0.41038   0.73166   0.72247   -0.042613           
         C         C         0.48706   0.74067   0.93617   -0.048640           
         C         C         0.60243   0.26995   0.93116   -0.047165           
         H         H         0.79635   0.91396   0.83387   0.102316  
         H         H         0.23174   0.12202   0.77489   0.106368  
         H         H         0.18991   0.95539   0.64281   0.102308  
         H         H         0.77706   0.03108   0.50284   0.083246  
         H         H         0.52187   0.31223   0.62002   0.108420  
         H         H         0.37719   0.70716   0.64532   0.107754  
         H         H         0.51126   0.72409   0.03139   0.097991  
         H         H         0.63333   0.28601   0.03336   0.104890  
         C         C         0.79573   0.97298   0.66474   -0.089334           
         C         C         0.20299   0.04017   0.69339   -0.123886           
         C         C         0.57843   0.30561   0.83226   -0.105800           
         C         C         0.44196   0.70953   0.84426   -0.106274           
         O         O         0.59142   0.46559   0.68476   -0.244248           
         O         O         0.40125   0.54600   0.71244   -0.245310           
         H         H         0.05149   0.08568   0.75207   0.142482  
         H         H         0.96297   0.90054   0.73761   0.152998  
         C         C         0.35649   0.52280   0.75352   0.582036  
         C         C         0.31439   0.55956   0.73419   -0.287074           
         C         C         0.26044   0.53219   0.74911   -0.276158           
         C         C         0.21669   0.56623   0.75505   0.615402  
         O         O         0.35211   0.47930   0.79921   -0.454931           
         H         H         0.31320   0.57669   0.62433   0.130978  
         H         H         0.33095   0.59252   0.82390   0.088523  
         H         H         0.26568   0.51070   0.85300   0.136299  
         H         H         0.24343   0.50126   0.65508   0.133962  
         O         O         0.23511   0.61909   0.78663   -0.490427           
         O         O         0.16969   0.54947   0.74135   -0.497219           
         H         H         0.20396   0.63715   0.79111   0.374551  
         C         C         0.64014   0.48624   0.77788   0.574560  
         C         C         0.68366   0.45896   0.73064   -0.290503           
         C         C         0.73918   0.48900   0.79618   -0.267224           
         C         C         0.78422   0.45843   0.77199   0.635083  
         O         O         0.64571   0.52175   0.87972   -0.454429           
         H         H         0.67542   0.45143   0.60479   0.125355  
         H         H         0.67952   0.42017   0.77519   0.096512  
         H         H         0.74406   0.49871   0.92066   0.134089  
         H         H         0.74448   0.52619   0.74481   0.130404  
         O         O         0.77887   0.40885   0.82079   -0.498866           
         O         O         0.82136   0.47347   0.71518   -0.504755           
         H         H         0.81036   0.39331   0.80268   0.377312  
         B         B         0.60594   0.36299   0.87608   0.022503  
         B         B         0.41870   0.65793   0.89431   0.020521  
         B         B         0.14376   0.03029   0.61319   0.170228  
         B         B         0.84940   0.96836   0.60949   -0.096008           
         N         N         0.57301   0.05402   0.74546   -0.251689           
         N         N         0.43407   0.95483   0.75276   -0.258288           
         H         H         0.54062   0.02739   0.74747   0.272118  
         H         H         0.46292   0.97949   0.72015   0.276213 

