
##########################################################################
#               Crystallographic Information Format file
#               Produced by PyCifRW module
#
#  This is a CIF file.  CIF has been adopted by the International
#  Union of Crystallography as the standard for data archiving and
#  transmission.
#
#  For information on this file format, follow the CIF links at
#  http://www.iucr.org
##########################################################################

data_image0

_cell_length_a                          40.279
_cell_length_b                          31.5753
_cell_length_c                          10.9191
_cell_angle_alpha                       68.5769
_cell_angle_beta                        126.29
_cell_angle_gamma                       90.2175
_symmetry_space_group_name_H-M          'P 1'
_space_group_name_Hall                  'P 1'
loop_
  _atom_site_type_symbol
  _atom_site_label
  _atom_site_fract_x
  _atom_site_fract_y
  _atom_site_fract_z
  _atom_site_charge
         C         C         0.76225   0.99825   0.29167   -0.131218           
         C         C         0.23821   0.60254   0.23167   0.102802  
         C         C         0.25990   0.50473   0.35024   -0.131253           
         C         C         0.74309   0.09344   0.21745   0.105907  
         C         C         0.25920   0.00809   0.28623   -0.133128           
         C         C         0.75972   0.60008   0.24442   0.111714  
         C         C         0.75687   0.50949   0.26807   -0.130558           
         C         C         0.25477   0.10374   0.19467   0.106932  
         C         C         0.71654   0.06593   0.22933   0.116854  
         C         C         0.28520   0.52975   0.32553   -0.111113           
         C         C         0.21223   0.57710   0.25704   0.127651  
         C         C         0.78819   0.02530   0.27935   -0.099592           
         C         C         0.28126   0.07605   0.19075   0.112068  
         C         C         0.73082   0.53290   0.27995   -0.114555           
         C         C         0.78741   0.57572   0.23719   0.119811  
         C         C         0.23383   0.03521   0.29208   -0.114119           
         C         C         0.80662   0.10269   0.23221   0.091376  
         C         C         0.19711   0.49624   0.32761   0.084695  
         C         C         0.30142   0.60677   0.24522   0.084169  
         C         C         0.70016   0.98577   0.27719   0.087750  
         C         C         0.20410   0.11358   0.24811   0.093476  
         C         C         0.81200   0.49887   0.24595   0.089064  
         C         C         0.70139   0.60586   0.26222   0.092247  
         C         C         0.30777   0.99402   0.23337   0.085357  
         C         C         0.72584   0.01752   0.26686   -0.018871           
         C         C         0.27467   0.57928   0.26536   -0.012790           
         C         C         0.22283   0.52718   0.31526   -0.029603           
         C         C         0.77937   0.07340   0.24260   -0.013244           
         C         C         0.28354   0.02715   0.23624   -0.018697           
         C         C         0.73125   0.57896   0.26516   -0.010609           
         C         C         0.78558   0.52977   0.24669   -0.021101           
         C         C         0.23105   0.08369   0.24644   -0.010553           
         N         N         0.66362   0.99810   0.24144   -0.287842           
         N         N         0.33711   0.58743   0.28615   -0.292011           
         N         N         0.15974   0.50912   0.28403   -0.271300           
         N         N         0.84222   0.08575   0.26808   -0.290531           
         N         N         0.33502   0.00254   0.20680   -0.280067           
         N         N         0.67836   0.58665   0.30086   -0.291762           
         N         N         0.84114   0.50801   0.23138   -0.267008           
         N         N         0.17788   0.09859   0.27475   -0.302498           
         N         N         0.05732   0.29800   0.25895   -0.294977           
         N         N         0.54989   0.79292   0.22356   -0.311895           
         N         N         0.95204   0.28948   0.26869   -0.302827           
         N         N         0.45223   0.78478   0.27921   -0.303805           
         H         H         0.02476   0.30915   0.18371   0.262688  
         H         H         0.53575   0.78557   0.27805   0.255946  
         H         H         0.96716   0.29857   0.21851   0.259648  
         H         H         0.48457   0.77147   0.37499   0.258299  
         C         C         0.93276   0.32233   0.28263   0.153538  
         C         C         0.07895   0.26175   0.26498   0.154406  
         C         C         0.42763   0.82669   0.23526   0.144522  
         C         C         0.56746   0.75818   0.21020   0.140742  
         C         C         0.08307   0.32766   0.31001   0.159837  
         C         C         0.93337   0.25200   0.26545   0.152445  
         C         C         0.56993   0.82933   0.22308   0.161363  
         C         C         0.42613   0.75628   0.22026   0.153756  
         C         C         0.90242   0.30391   0.29422   -0.227158           
         C         C         0.11972   0.26802   0.32833   -0.205450           
         C         C         0.38496   0.82511   0.14063   -0.205610           
         C         C         0.59729   0.77506   0.19100   -0.214982           
         C         C         0.12205   0.30883   0.35387   -0.217346           
         C         C         0.90336   0.26049   0.28660   -0.211824           
         C         C         0.59849   0.81849   0.19766   -0.205103           
         C         C         0.38397   0.78217   0.12852   -0.215748           
         H         H         0.88216   0.32005   0.30883   0.130357  
         H         H         0.14519   0.24430   0.35669   0.119069  
         H         H         0.35778   0.85313   0.08399   0.131126  
         H         H         0.61605   0.75737   0.17379   0.126587  
         H         H         0.14913   0.32337   0.40072   0.127954  
         H         H         0.88479   0.23687   0.29777   0.128072  
         H         H         0.61776   0.84053   0.18378   0.125264  
         H         H         0.35591   0.77039   0.06103   0.137006  
         N         N         0.50003   0.72280   0.24462   -0.345554           
         N         N         0.50179   0.85587   0.24992   -0.344613           
         N         N         0.00353   0.23023   0.24152   -0.355870           
         N         N         0.00720   0.35416   0.29747   -0.359039           
         C         C         0.53108   0.69603   0.25737   0.153785  
         C         C         0.47873   0.87671   0.28366   0.153578  
         C         C         0.02842   0.21035   0.21216   0.155642  
         C         C         0.97756   0.37923   0.29664   0.165098  
         C         C         0.47827   0.69260   0.28470   0.164739  
         C         C         0.53301   0.87983   0.26514   0.156677  
         C         C         0.97338   0.20404   0.22651   0.154668  
         C         C         0.03650   0.38122   0.30758   0.162838  
         C         C         0.52976   0.64774   0.31756   -0.159037           
         C         C         0.49891   0.91129   0.33447   -0.177123           
         C         C         0.01035   0.17439   0.16403   -0.171029           
         C         C         0.98970   0.42159   0.30756   -0.168475           
         C         C         0.50010   0.64546   0.34200   -0.170428           
         C         C         0.53057   0.91370   0.32047   -0.170819           
         C         C         0.97845   0.16998   0.17614   -0.164667           
         C         C         0.02429   0.42291   0.31267   -0.172735           
         H         H         0.55036   0.61804   0.34474   0.138426  
         H         H         0.49096   0.93028   0.38282   0.137403  
         H         H         0.02010   0.15554   0.12000   0.137130  
         H         H         0.97384   0.44739   0.31355   0.133376  
         H         H         0.49417   0.61352   0.39812   0.137840  
         H         H         0.55211   0.93570   0.35268   0.132373  
         H         H         0.95833   0.14651   0.14570   0.136228  
         H         H         0.04119   0.44977   0.32368   0.134366  
         C         C         0.94316   0.36622   0.28369   -0.135262           
         C         C         0.06338   0.22313   0.22817   -0.137858           
         C         C         0.44338   0.86567   0.26871   -0.144111           
         C         C         0.55973   0.71227   0.23238   -0.133190           
         C         C         0.07035   0.36968   0.31280   -0.121171           
         C         C         0.94287   0.21271   0.24292   -0.118795           
         C         C         0.56280   0.86928   0.24660   -0.128026           
         C         C         0.44196   0.70760   0.26279   -0.129146           
         C         C         0.91439   0.40128   0.26673   0.072332  
         C         C         0.09136   0.19141   0.23160   0.072775  
         C         C         0.41571   0.89969   0.25834   0.071845  
         C         C         0.58870   0.67834   0.24588   0.071703  
         C         C         0.09495   0.40504   0.31391   0.078989  
         C         C         0.91649   0.17894   0.23836   0.077488  
         C         C         0.59013   0.90173   0.25284   0.081622  
         C         C         0.41651   0.67532   0.27449   0.073696  
         C         C         0.61409   0.63328   0.38700   -0.133578           
         C         C         0.39760   0.88488   0.33956   -0.127958           
         C         C         0.10611   0.14196   0.33550   -0.127815           
         C         C         0.90280   0.38956   0.37117   -0.143205           
         C         C         0.41376   0.63684   0.23464   -0.139075           
         C         C         0.57136   0.95069   0.14161   -0.131269           
         C         C         0.87145   0.19387   0.11211   -0.127661           
         C         C         0.07388   0.45025   0.17317   -0.129192           
         C         C         0.39199   0.68260   0.32236   -0.127627           
         C         C         0.63539   0.88525   0.36866   -0.126332           
         C         C         0.93559   0.13161   0.36572   -0.135331           
         C         C         0.13841   0.39563   0.45121   -0.128899           
         C         C         0.59299   0.69117   0.11945   -0.128196           
         C         C         0.40491   0.94893   0.15880   -0.126501           
         C         C         0.10644   0.20949   0.14026   -0.134468           
         C         C         0.89918   0.44925   0.14665   -0.127060           
         H         H         0.91372   0.35319   0.46593   0.090456  
         H         H         0.09617   0.12715   0.41184   0.114195  
         H         H         0.40551   0.84726   0.41882   0.101571  
         H         H         0.61286   0.62264   0.49029   0.106159  
         H         H         0.04000   0.45843   0.06732   0.110815  
         H         H         0.85609   0.22985   0.00933   0.112493  
         H         H         0.53654   0.96436   0.05160   0.109263  
         H         H         0.43027   0.63101   0.18944   0.103656  
         H         H         0.15479   0.36169   0.56446   0.111211  
         H         H         0.97034   0.11923   0.46407   0.112736  
         H         H         0.65077   0.84790   0.45991   0.112956  
         H         H         0.39445   0.71046   0.36095   0.105990  
         H         H         0.90616   0.45899   0.05957   0.107572  
         H         H         0.09591   0.24743   0.05990   0.101702  
         H         H         0.41691   0.96109   0.08901   0.109328  
         H         H         0.57316   0.72493   0.00607   0.089387  
         C         C         0.87823   0.42408   0.35924   -0.183672           
         C         C         0.13439   0.11226   0.34757   -0.158295           
         C         C         0.37063   0.91762   0.32374   -0.175676           
         C         C         0.64194   0.60243   0.40050   -0.161963           
         C         C         0.09538   0.48443   0.16730   -0.164568           
         C         C         0.84636   0.16377   0.11701   -0.188248           
         C         C         0.59637   0.98136   0.14338   -0.163114           
         C         C         0.38858   0.60752   0.24248   -0.165027           
         C         C         0.16053   0.42942   0.44514   -0.193329           
         C         C         0.91077   0.10113   0.37063   -0.162031           
         C         C         0.66066   0.91573   0.37000   -0.184169           
         C         C         0.36533   0.65485   0.32274   -0.186564           
         C         C         0.87574   0.48406   0.13755   -0.165801           
         C         C         0.13441   0.17998   0.15050   -0.175572           
         C         C         0.37821   0.98158   0.14375   -0.163435           
         C         C         0.62257   0.66171   0.13709   -0.188285           
         H         H         0.87104   0.41428   0.44551   0.099963  
         H         H         0.14640   0.07441   0.43167   0.121641  
         H         H         0.35901   0.90500   0.39468   0.100667  
         H         H         0.66136   0.56795   0.51069   0.119137  
         H         H         0.07909   0.51919   0.05792   0.124888  
         H         H         0.81168   0.17573   0.01647   0.115253  
         H         H         0.58153   0.01904   0.05619   0.117580  
         H         H         0.38673   0.57851   0.20936   0.125070  
         H         H         0.19406   0.42198   0.55313   0.106735  
         H         H         0.92580   0.06486   0.47110   0.121945  
         H         H         0.69549   0.90194   0.46340   0.112161  
         H         H         0.34714   0.66139   0.36099   0.108648  
         H         H         0.86456   0.52084   0.04498   0.111579  
         H         H         0.14364   0.19508   0.07167   0.114182  
         H         H         0.36970   0.01935   0.06572   0.109848  
         H         H         0.62562   0.67286   0.03871   0.098047  
         C         C         0.86450   0.47198   0.24314   0.203758  
         C         C         0.14978   0.13060   0.25770   0.196585  
         C         C         0.36004   0.96681   0.22427   0.198461  
         C         C         0.64790   0.61690   0.27855   0.202861  
         C         C         0.13946   0.47397   0.30105   0.204355  
         C         C         0.86555   0.11713   0.25038   0.209219  
         C         C         0.64155   0.96450   0.25410   0.200338  
         C         C         0.36279   0.61667   0.28225   0.206761  
         H         H         0.84002   0.62981   0.11547   0.116780  
         H         H         0.78721   0.68070   0.13182   0.107364  
         H         H         0.35563   0.09963   0.34369   0.085716  
         H         H         0.30804   0.14578   0.35470   0.103444  
         H         H         0.16609   0.56134   0.37765   0.096629  
         H         H         0.19960   0.67149   0.25616   0.103604  
         H         H         0.64634   0.13325   0.94737   0.095361  
         H         H         0.69123   0.16944   0.19337   0.102268  
         H         H         0.20147   0.59722   0.45013   0.085918  
         H         H         0.25710   0.64735   0.40937   0.104470  
         H         H         0.63184   0.07897   -0.00259  0.093382  
         H         H         0.74050   0.12735   0.39041   0.110356  
         H         H         0.81899   0.58303   0.06664   0.094897  
         H         H         0.73370   0.67819   0.98417   0.100972  
         H         H         0.36199   0.05482   0.28671   0.101460  
         H         H         0.30068   0.17218   0.16048   0.102687  
         H         H         0.76930   0.96121   0.31899   0.110596  
         O         O         0.68246   0.08726   0.20761   -0.178003           
         H         H         0.79572   0.14004   0.19674   0.067411  
         O         O         0.22845   0.65118   0.16882   -0.186923           
         H         H         0.31338   0.51243   0.35115   0.121028  
         H         H         0.21114   0.45901   0.37003   0.061583  
         C         C         0.81420   0.61292   0.08808   -0.199236           
         H         H         0.78314   0.63915   0.97632   0.084440  
         C         C         0.75604   0.68129   0.10267   -0.185524           
         H         H         0.74259   0.71460   0.08791   0.112237  
         H         H         0.26758   0.46652   0.39470   0.105678  
         O         O         0.17630   0.60382   0.20959   -0.166620           
         H         H         0.28987   0.64513   0.19434   0.068705  
         O         O         0.73350   0.14112   0.17093   -0.183517           
         H         H         0.81598   0.01024   0.29802   0.122190  
         H         H         0.71390   0.94916   0.31291   0.059786  
         C         C         0.34572   0.09151   0.23888   -0.198088           
         H         H         0.35300   0.11601   0.16211   0.115731  
         C         C         0.28509   0.16916   0.21706   -0.185478           
         H         H         0.27290   0.20432   0.19511   0.111194  
         H         H         0.26106   0.97066   0.32089   0.106355  
         O         O         0.29967   0.10003   0.12361   -0.167864           
         H         H         0.20705   0.14969   0.22356   0.067225  
         O         O         0.76044   0.64402   0.24101   -0.164692           
         H         H         0.70892   0.51719   0.29702   0.118826  
         H         H         0.80486   0.46457   0.25806   0.062500  
         C         C         0.17238   0.59558   0.33956   -0.197363           
         H         H         0.14482   0.62438   0.27964   0.114094  
         C         C         0.22952   0.66955   0.27456   -0.183636           
         H         H         0.23318   0.70525   0.23317   0.112915  
         H         H         0.75620   0.47404   0.27723   0.106201  
         O         O         0.81758   0.59658   0.23865   -0.172853           
         H         H         0.69938   0.64359   0.22539   0.065008  
         O         O         0.24803   0.15207   0.13616   -0.169282           
         H         H         0.21545   0.02013   0.33133   0.116121  
         H         H         0.30122   0.95928   0.25802   0.063870  
         C         C         0.64268   0.10718   0.03520   -0.187720           
         H         H         0.61926   0.12475   0.03519   0.114906  
         C         C         0.72579   0.15638   0.26465   -0.181860           
         H         H         0.74108   0.18492   0.27946   0.110523  
         H         H         0.48203   0.75603   0.14681   0.262014  
         H         H         0.48394   0.84901   0.14733   0.261950  
         H         H         0.02099   0.23504   0.34869   0.254829  
         H         H         0.02200   0.31930   0.38680   0.248317  
         C         C         0.73839   0.02065   0.69063   -0.132308           
         C         C         0.24469   0.59375   0.81839   0.103622  
         C         C         0.24665   0.51281   0.77048   -0.142364           
         C         C         0.74574   0.09356   0.78573   0.100976  
         C         C         0.25390   0.00738   0.77245   -0.131278           
         C         C         0.75324   0.60217   0.70938   0.103434  
         C         C         0.75750   0.50620   0.81080   -0.131320           
         C         C         0.25400   0.10058   0.72040   0.113201  
         C         C         0.71860   0.06578   0.78952   0.107880  
         C         C         0.27449   0.53904   0.77444   -0.119684           
         C         C         0.21533   0.56765   0.80945   0.107148  
         C         C         0.76528   0.04745   0.68899   -0.117319           
         C         C         0.27719   0.07638   0.69591   0.118362  
         C         C         0.73522   0.53394   0.82687   -0.115883           
         C         C         0.77594   0.57400   0.69280   0.116803  
         C         C         0.23072   0.03141   0.79443   -0.111394           
         C         C         0.79751   0.11279   0.73382   0.074863  
         C         C         0.19041   0.49386   0.78762   0.081208  
         C         C         0.30186   0.60923   0.79466   0.070854  
         C         C         0.69293   0.99337   0.76099   0.074949  
         C         C         0.20342   0.10582   0.77784   0.092526  
         C         C         0.80233   0.49222   0.73909   0.087006  
         C         C         0.70484   0.61353   0.77191   0.077459  
         C         C         0.30284   -0.00103  0.71501   0.092734  
         C         C         0.71555   0.02794   0.74535   -0.032075           
         C         C         0.27404   0.58007   0.79746   -0.023789           
         C         C         0.21645   0.52610   0.78709   -0.031216           
         C         C         0.76977   0.08405   0.73780   -0.022541           
         C         C         0.27800   0.02879   0.72497   -0.015012           
         C         C         0.73214   0.58273   0.77452   -0.021558           
         C         C         0.77855   0.52510   0.74454   -0.011441           
         C         C         0.23015   0.07860   0.76813   -0.011492           
         N         N         0.67324   0.99105   0.82268   -0.285239           
         N         N         0.32647   0.59990   0.76185   -0.302979           
         N         N         0.15970   0.50020   0.79329   -0.270552           
         N         N         0.82057   0.10393   0.69416   -0.296923           
         N         N         0.33342   0.00823   0.70984   -0.276768           
         N         N         0.67918   0.59817   0.80145   -0.300132           
         N         N         0.83191   0.50041   0.72622   -0.277273           
         N         N         0.17708   0.08896   0.80055   -0.292651           
         N         N         0.04860   0.29359   0.73465   -0.301239           
         N         N         0.54688   0.80027   0.71745   -0.318860           
         N         N         0.94575   0.28856   0.76221   -0.293257           
         N         N         0.45321   0.78708   0.79793   -0.314549           
         H         H         0.03264   0.28458   0.78122   0.259564  
         H         H         0.51634   0.81913   0.60718   0.261140  
         H         H         0.97818   0.27460   0.85196   0.271478  
         H         H         0.48492   0.77225   0.90243   0.262092  
         C         C         0.92285   0.32802   0.73748   0.152899  
         C         C         0.06656   0.26122   0.71504   0.149798  
         C         C         0.42848   0.82907   0.75660   0.143385  
         C         C         0.56897   0.75996   0.73975   0.146779  
         C         C         0.06855   0.32992   0.74386   0.158390  
         C         C         0.91811   0.26369   0.68498   0.152217  
         C         C         0.57630   0.82518   0.79056   0.159280  
         C         C         0.42652   0.75837   0.74057   0.152275  
         C         C         0.87960   0.32838   0.63854   -0.214443           
         C         C         0.09714   0.27945   0.70372   -0.225204           
         C         C         0.38611   0.82657   0.66831   -0.203520           
         C         C         0.61226   0.75942   0.83296   -0.198622           
         C         C         0.09754   0.32187   0.71734   -0.205828           
         C         C         0.87667   0.28898   0.60500   -0.210797           
         C         C         0.61672   0.79906   0.86506   -0.202968           
         C         C         0.38490   0.78361   0.65694   -0.205833           
         H         H         0.85343   0.35570   0.59255   0.130761  
         H         H         0.11718   0.26342   0.68809   0.134846  
         H         H         0.35904   0.85450   0.61311   0.132508  
         H         H         0.63796   0.73130   0.87979   0.129327  
         H         H         0.11623   0.34535   0.70647   0.125277  
         H         H         0.84789   0.27906   0.53042   0.135899  
         H         H         0.64622   0.80800   0.93897   0.136135  
         H         H         0.35678   0.77167   0.59159   0.139029  
         N         N         0.49311   0.72919   0.71736   -0.318254           
         N         N         0.50470   0.85855   0.78459   -0.313583           
         N         N         0.99286   0.23073   0.70404   -0.349546           
         N         N         0.00052   0.35293   0.77879   -0.342763           
         C         C         0.51952   0.70730   0.70105   0.166313  
         C         C         0.47717   0.88206   0.79237   0.169813  
         C         C         0.02407   0.20286   0.71958   0.163666  
         C         C         0.97802   0.37232   0.81722   0.161425  
         C         C         0.46903   0.70017   0.74175   0.173413  
         C         C         0.53414   0.88314   0.79120   0.175088  
         C         C         0.96560   0.20325   0.71252   0.165659  
         C         C         0.03429   0.37394   0.81172   0.160307  
         C         C         0.50904   0.66339   0.70448   -0.172834           
         C         C         0.49045   0.92390   0.80356   -0.180315           
         C         C         0.01612   0.15715   0.74420   -0.167822           
         C         C         0.00139   0.40188   0.89109   -0.182187           
         C         C         0.48125   0.65792   0.73877   -0.168184           
         C         C         0.52315   0.92544   0.79629   -0.178116           
         C         C         0.98223   0.15702   0.74451   -0.169053           
         C         C         0.03495   0.40280   0.88835   -0.167833           
         H         H         0.52231   0.63872   0.68663   0.135042  
         H         H         0.47601   0.94953   0.81478   0.130117  
         H         H         0.03509   0.12763   0.76339   0.132666  
         H         H         0.99421   0.41776   0.94847   0.126651  
         H         H         0.47002   0.62703   0.76044   0.141304  
         H         H         0.53900   0.95314   0.79617   0.133832  
         H         H         0.96967   0.12730   0.76707   0.137282  
         H         H         0.05988   0.41980   0.94289   0.129794  
         C         C         0.94061   0.36393   0.78810   -0.139142           
         C         C         0.05704   0.21659   0.72077   -0.131552           
         C         C         0.44214   0.87003   0.77747   -0.150036           
         C         C         0.55298   0.72118   0.70495   -0.147496           
         C         C         0.06267   0.36647   0.78358   -0.119479           
         C         C         0.93046   0.21854   0.69629   -0.115979           
         C         C         0.56743   0.86841   0.79572   -0.129846           
         C         C         0.43858   0.71209   0.75621   -0.133566           
         C         C         0.91357   0.39785   0.78049   0.074014  
         C         C         0.08690   0.18265   0.73849   0.072292  
         C         C         0.41240   0.90515   0.75510   0.071477  
         C         C         0.58273   0.68863   0.71804   0.074893  
         C         C         0.08939   0.39978   0.79396   0.080971  
         C         C         0.90265   0.18792   0.69412   0.074823  
         C         C         0.59767   0.89691   0.81468   0.076839  
         C         C         0.41163   0.68127   0.76483   0.081776  
         C         C         0.59937   0.63948   0.82856   -0.133190           
         C         C         0.39544   0.89116   0.84064   -0.137924           
         C         C         0.10690   0.13508   0.86554   -0.130817           
         C         C         0.89189   0.38302   0.84648   -0.132444           
         C         C         0.39734   0.65248   0.67997   -0.150787           
         C         C         0.61017   0.90525   0.71316   -0.127207           
         C         C         0.88748   0.16207   0.59854   -0.141758           
         C         C         0.06941   0.44907   0.69541   -0.128302           
         C         C         0.39639   0.68151   0.85315   -0.124044           
         C         C         0.61405   0.91800   0.92592   -0.143656           
         C         C         0.89031   0.18415   0.79412   -0.128480           
         C         C         0.13448   0.38439   0.89851   -0.124509           
         C         C         0.59973   0.70712   0.63441   -0.129156           
         C         C         0.39975   0.95405   0.64685   -0.128904           
         C         C         0.09772   0.19741   0.63139   -0.142929           
         C         C         0.90632   0.44723   0.69602   -0.127440           
         H         H         0.89713   0.34527   0.91394   0.106332  
         H         H         0.10098   0.12263   0.95592   0.109515  
         H         H         0.40374   0.85377   0.92289   0.095409  
         H         H         0.58894   0.62407   0.90257   0.116166  
         H         H         0.03461   0.46166   0.61396   0.109896  
         H         H         0.89597   0.16450   0.51875   0.103546  
         H         H         0.59835   0.88860   0.62906   0.097709  
         H         H         0.40662   0.65229   0.60522   0.097112  
         H         H         0.15077   0.34665   0.98062   0.109520  
         H         H         0.90234   0.20330   0.87031   0.101382  
         H         H         0.60677   0.91099   0.01154   0.098510  
         H         H         0.40724   0.70211   0.92442   0.098505  
         H         H         0.92132   0.45968   0.63844   0.114380  
         H         H         0.08279   0.23340   0.52969   0.084640  
         H         H         0.40979   0.96555   0.56979   0.109326  
         H         H         0.58818   0.74490   0.55047   0.095292  
         C         C         0.86477   0.41564   0.83030   -0.173599           
         C         C         0.13569   0.10417   0.88331   -0.156632           
         C         C         0.36882   0.92434   0.82460   -0.180234           
         C         C         0.63095   0.61082   0.85362   -0.157282           
         C         C         0.09316   0.48138   0.69982   -0.167835           
         C         C         0.86089   0.13421   0.60227   -0.160433           
         C         C         0.63516   0.93547   0.71315   -0.183894           
         C         C         0.37011   0.62571   0.68277   -0.157899           
         C         C         0.15843   0.41651   0.90002   -0.190649           
         C         C         0.86456   0.15594   0.80054   -0.184372           
         C         C         0.63938   0.94809   0.92726   -0.164550           
         C         C         0.36807   0.65613   0.85156   -0.180158           
         C         C         0.87910   0.47994   0.67879   -0.156507           
         C         C         0.12768   0.16739   0.65254   -0.174190           
         C         C         0.37422   0.98740   0.63458   -0.167153           
         C         C         0.63141   0.67877   0.65903   -0.180166           
         H         H         0.85056   0.40282   0.89108   0.110861  
         H         H         0.15100   0.06786   0.98330   0.119721  
         H         H         0.35787   0.91266   0.89825   0.099932  
         H         H         0.64415   0.57326   0.94208   0.122982  
         H         H         0.07741   0.51932   0.62405   0.117577  
         H         H         0.84865   0.11475   0.52697   0.114629  
         H         H         0.64172   0.94308   0.62508   0.109866  
         H         H         0.35974   0.60382   0.61618   0.116435  
         H         H         0.19329   0.40392   0.98400   0.111737  
         H         H         0.85772   0.15208   0.88606   0.110767  
         H         H         0.65137   0.96496   0.01080   0.106397  
         H         H         0.35765   0.65730   0.92230   0.107582  
         H         H         0.87308   0.51784   0.61017   0.127171  
         H         H         0.13477   0.18019   0.56602   0.101561  
         H         H         0.36487   0.02490   0.55169   0.107470  
         H         H         0.64205   0.69438   0.58575   0.113402  
         C         C         0.85723   0.46501   0.74356   0.194821  
         C         C         0.14772   0.12013   0.78039   0.205780  
         C         C         0.35791   0.97324   0.72233   0.199759  
         C         C         0.64834   0.62976   0.77221   0.196812  
         C         C         0.13804   0.46572   0.79807   0.208041  
         C         C         0.84818   0.13137   0.70010   0.204352  
         C         C         0.65018   0.95792   0.82030   0.196843  
         C         C         0.35399   0.62747   0.76602   0.196758  
         H         H         0.85777   0.56483   0.80148   0.097263  
         H         H         0.73605   0.66976   0.42607   0.106872  
         H         H         0.34063   0.11122   0.84808   0.101594  
         H         H         0.24150   0.17466   0.46339   0.100201  
         H         H         0.13307   0.58351   0.61269   0.099587  
         H         H         0.18503   0.67488   0.66020   0.097504  
         H         H         0.63908   0.08278   0.62155   0.108315  
         H         H         0.68684   0.16834   0.65210   0.101614  
         H         H         0.12700   0.59600   0.74608   0.127638  
         H         H         0.20270   0.65108   0.87300   0.117701  
         H         H         0.64177   0.06798   0.80172   0.111467  
         H         H         0.70964   0.14843   0.87012   0.103869  
         H         H         0.84007   0.62217   0.63216   0.121488  
         H         H         0.69136   0.67925   0.42277   0.100772  
         H         H         0.36163   0.06633   0.82560   0.099317  
         H         H         0.19579   0.18193   0.45415   0.096182  
         H         H         0.73476   0.99249   0.65232   0.109075  
         O         O         0.69859   0.07487   0.84791   -0.167405           
         H         H         0.79732   0.14247   0.76278   0.070887  
         O         O         0.24879   0.63176   0.85324   -0.155870           
         H         H         0.29704   0.52932   0.75817   0.118460  
         H         H         0.19844   0.46238   0.77848   0.057967  
         C         C         0.83452   0.60012   0.71908   -0.185806           
         H         H         0.83693   0.61734   0.79412   0.095922  
         C         C         0.72477   0.68023   0.48381   -0.188011           
         H         H         0.72702   0.71600   0.47055   0.116055  
         H         H         0.24739   0.48105   0.75333   0.103185  
         O         O         0.18911   0.58105   0.83836   -0.163520           
         H         H         0.30004   0.63976   0.81782   0.073952  
         O         O         0.75211   0.12934   0.83369   -0.165168           
         H         H         0.78342   0.04148   0.64984   0.115440  
         H         H         0.69479   0.96729   0.71897   0.060867  
         C         C         0.33914   0.10129   0.75877   -0.188574           
         H         H         0.34691   0.12797   0.68874   0.108234  
         C         C         0.22971   0.18155   0.52477   -0.187605           
         H         H         0.23321   0.21563   0.52797   0.116008  
         H         H         0.25442   0.97082   0.79371   0.107918  
         O         O         0.29606   0.10128   0.63215   -0.185729           
         H         H         0.20619   0.14170   0.76147   0.080263  
         O         O         0.75223   0.64943   0.66560   -0.191269           
         H         H         0.71881   0.51950   0.87661   0.115115  
         H         H         0.79418   0.45835   0.75326   0.063921  
         C         C         0.14385   0.60133   0.69388   -0.192706           
         H         H         0.13728   0.63946   0.62024   0.080940  
         C         C         0.21217   0.66513   0.79384   -0.188212           
         H         H         0.22302   0.69646   0.80400   0.115476  
         H         H         0.75965   0.46859   0.85139   0.109854  
         O         O         0.79165   0.59613   0.61163   -0.173894           
         H         H         0.70593   0.65049   0.73662   0.063418  
         O         O         0.25509   0.14621   0.70045   -0.182486           
         H         H         0.21212   0.01506   0.83057   0.118179  
         H         H         0.29440   0.96566   0.71680   0.061299  
         C         C         0.65221   0.08903   0.73240   -0.189504           
         H         H         0.64101   0.12703   0.69027   0.085161  
         C         C         0.71571   0.16178   0.77933   -0.186002           
         H         H         0.72446   0.19497   0.77415   0.109783  
         H         H         0.49100   0.76196   0.71075   0.254444  
         H         H         0.50821   0.82475   0.80129   0.250739  
         H         H         0.97719   0.26453   0.60677   0.255048  
         H         H         0.98204   0.35040   0.66725   0.262136 

