
##########################################################################
#               Crystallographic Information Format file
#               Produced by PyCifRW module
#
#  This is a CIF file.  CIF has been adopted by the International
#  Union of Crystallography as the standard for data archiving and
#  transmission.
#
#  For information on this file format, follow the CIF links at
#  http://www.iucr.org
##########################################################################

data_image0

_cell_length_a                          39.474
_cell_length_b                          32.5461
_cell_length_c                          9.63573
_cell_angle_alpha                       78.4486
_cell_angle_beta                        70.6211
_cell_angle_gamma                       90.1824
_symmetry_space_group_name_H-M          'P 1'
_space_group_name_Hall                  'P 1'
loop_
  _atom_site_type_symbol
  _atom_site_label
  _atom_site_fract_x
  _atom_site_fract_y
  _atom_site_fract_z
  _atom_site_charge
         C         C         0.24779   0.59481   0.20375   0.153519  
         C         C         0.75969   0.01061   0.21816   -0.139797           
         C         C         0.74028   0.08875   0.28760   0.154556  
         C         C         0.25472   0.50993   0.31394   -0.142330           
         C         C         0.75793   0.58940   0.25903   0.151345  
         C         C         0.24014   0.00968   0.21982   -0.140691           
         C         C         0.25651   0.09259   0.23123   0.151979  
         C         C         0.74514   0.51198   0.18889   -0.140318           
         C         C         0.27985   0.54038   0.30858   -0.130549           
         C         C         0.71392   0.06046   0.28180   0.164475  
         C         C         0.78522   0.03839   0.22516   -0.125893           
         C         C         0.22229   0.56373   0.20774   0.165342  
         C         C         0.72050   0.54195   0.19275   -0.129114           
         C         C         0.28169   0.06234   0.23807   0.164995  
         C         C         0.21516   0.03916   0.21775   -0.130972           
         C         C         0.78322   0.55886   0.25515   0.164298  
         C         C         0.19919   0.48972   0.26642   0.090940  
         C         C         0.80225   0.10804   0.27000   0.093661  
         C         C         0.69619   0.99209   0.24426   0.085792  
         C         C         0.30302   0.61614   0.24680   0.086209  
         C         C         0.80252   0.48860   0.22008   0.083620  
         C         C         0.19703   0.11306   0.21930   0.094323  
         C         C         0.30006   0.99008   0.23462   0.092325  
         C         C         0.70062   0.61298   0.23372   0.089654  
         C         C         0.27693   0.58353   0.25299   -0.018740           
         C         C         0.72343   0.02096   0.24703   -0.067923           
         C         C         0.77602   0.07804   0.26088   -0.024536           
         C         C         0.22542   0.52097   0.26301   -0.061660           
         C         C         0.72638   0.58117   0.22842   -0.023443           
         C         C         0.27390   0.02055   0.23053   -0.065643           
         C         C         0.22299   0.08128   0.22278   -0.024293           
         C         C         0.77694   0.51977   0.22081   -0.062295           
         N         N         0.33130   0.60649   0.28483   -0.293233           
         N         N         0.66244   0.00087   0.27960   -0.279534           
         N         N         0.83470   0.09878   0.26214   -0.284829           
         N         N         0.17242   0.50026   0.21812   -0.286960           
         N         N         0.67015   0.60581   0.21680   -0.293382           
         N         N         0.33035   -0.00036  0.25275   -0.283247           
         N         N         0.16301   0.10305   0.25827   -0.275902           
         N         N         0.83133   0.49555   0.25349   -0.292377           
         N         N         0.05553   0.30488   0.22881   -0.256874           
         N         N         0.55313   0.80220   0.26383   -0.257715           
         N         N         0.94748   0.30123   0.24407   -0.254039           
         N         N         0.44704   0.80523   0.25492   -0.256983           
         H         H         0.02867   0.30420   0.24385   0.272601  
         H         H         0.52660   0.79906   0.27338   0.271727  
         H         H         0.97457   0.30183   0.22332   0.272107  
         H         H         0.47423   0.80783   0.23217   0.277163  
         C         C         0.07643   0.27106   0.21222   0.179593  
         C         C         0.92663   0.33494   0.26553   0.183174  
         C         C         0.57509   0.76915   0.25116   0.184325  
         C         C         0.42551   0.83847   0.27346   0.180291  
         C         C         0.92646   0.26525   0.26068   0.178230  
         C         C         0.07568   0.33960   0.22884   0.179472  
         C         C         0.42650   0.76851   0.27867   0.179828  
         C         C         0.57187   0.83813   0.26401   0.184011  
         C         C         0.11201   0.28560   0.19767   -0.185764           
         C         C         0.89014   0.31877   0.30318   -0.194208           
         C         C         0.60992   0.78569   0.23904   -0.189859           
         C         C         0.38918   0.82149   0.31775   -0.192634           
         C         C         0.89006   0.27675   0.29955   -0.188847           
         C         C         0.11166   0.32732   0.20601   -0.192037           
         C         C         0.38970   0.77898   0.32096   -0.190483           
         C         C         0.60754   0.82674   0.25383   -0.187141           
         H         H         0.13473   0.26633   0.18121   0.134661  
         H         H         0.86693   0.33699   0.33188   0.131397  
         H         H         0.63391   0.76871   0.21994   0.132929  
         H         H         0.36592   0.83954   0.34779   0.133772  
         H         H         0.86687   0.25531   0.32344   0.134939  
         H         H         0.13409   0.34818   0.19693   0.130754  
         H         H         0.36686   0.75639   0.35308   0.134410  
         H         H         0.62878   0.84764   0.25461   0.130459  
         N         N         0.50187   0.74117   0.25866   -0.414048           
         N         N         0.49815   0.86693   0.25943   -0.407035           
         N         N         0.00111   0.24038   0.23369   -0.409612           
         N         N         0.00111   0.36529   0.24729   -0.416264           
         C         C         0.52898   0.71482   0.26180   0.194106  
         C         C         0.47270   0.89388   0.23776   0.184782  
         C         C         0.03030   0.21663   0.22009   0.186817  
         C         C         0.97352   0.39064   0.24347   0.194693  
         C         C         0.47363   0.71598   0.25924   0.190765  
         C         C         0.52700   0.89227   0.24912   0.183980  
         C         C         0.97420   0.21422   0.22977   0.192273  
         C         C         0.02864   0.39130   0.24709   0.192613  
         C         C         0.51697   0.67171   0.26990   -0.189569           
         C         C         0.48665   0.93751   0.20429   -0.189812           
         C         C         0.02179   0.17432   0.20650   -0.186724           
         C         C         0.98454   0.43422   0.23523   -0.192674           
         C         C         0.48341   0.67287   0.26021   -0.183359           
         C         C         0.52028   0.93663   0.21393   -0.192484           
         C         C         0.98710   0.17311   0.20877   -0.187520           
         C         C         0.01803   0.43413   0.24547   -0.186921           
         H         H         0.53161   0.64407   0.28262   0.127317  
         H         H         0.47281   0.96469   0.17373   0.127115  
         H         H         0.04019   0.14972   0.19439   0.127186  
         H         H         0.96922   0.46126   0.22280   0.124197  
         H         H         0.46695   0.64695   0.25553   0.127259  
         H         H         0.53930   0.96304   0.19449   0.123718  
         H         H         0.97204   0.14736   0.19523   0.127327  
         H         H         0.03404   0.46038   0.25044   0.125377  
         C         C         0.06496   0.23004   0.21297   -0.059618           
         C         C         0.93850   0.37711   0.25356   -0.080219           
         C         C         0.56429   0.72741   0.25361   -0.073613           
         C         C         0.43735   0.88087   0.25216   -0.069609           
         C         C         0.93853   0.22493   0.24587   -0.061895           
         C         C         0.06339   0.37974   0.24217   -0.076043           
         C         C         0.43873   0.72804   0.26707   -0.065841           
         C         C         0.56020   0.87901   0.26125   -0.069400           
         C         C         0.09139   0.19748   0.21754   0.065629  
         C         C         0.91132   0.40849   0.25222   0.071739  
         C         C         0.59174   0.69613   0.24574   0.066598  
         C         C         0.41026   0.91218   0.24903   0.076207  
         C         C         0.91153   0.19236   0.25014   0.062289  
         C         C         0.09027   0.41188   0.24201   0.073724  
         C         C         0.41131   0.69636   0.26846   0.066999  
         C         C         0.58646   0.91163   0.26310   0.073277  
         C         C         0.61700   0.69669   0.32059   -0.124525           
         C         C         0.40380   0.94180   0.34117   -0.124709           
         C         C         0.08511   0.16783   0.35267   -0.127444           
         C         C         0.90676   0.44111   0.33225   -0.122246           
         C         C         0.39110   0.70596   0.17096   -0.127530           
         C         C         0.62071   0.91989   0.15151   -0.124040           
         C         C         0.88868   0.20130   0.16401   -0.124789           
         C         C         0.09920   0.45013   0.13537   -0.120059           
         C         C         0.40384   0.65662   0.36720   -0.122049           
         C         C         0.57758   0.93536   0.37575   -0.124729           
         C         C         0.90753   0.15149   0.34009   -0.117661           
         C         C         0.10888   0.40419   0.34546   -0.122921           
         C         C         0.59417   0.66406   0.16413   -0.126122           
         C         C         0.38961   0.91294   0.15437   -0.124006           
         C         C         0.12232   0.19545   0.09510   -0.130390           
         C         C         0.88848   0.40655   0.16744   -0.118847           
         H         H         0.06131   0.16986   0.44769   0.100120  
         H         H         0.92274   0.44315   0.40320   0.111974  
         H         H         0.61435   0.71826   0.39551   0.104901  
         H         H         0.41883   0.94147   0.41728   0.097983  
         H         H         0.89222   0.23182   0.08812   0.101387  
         H         H         0.08571   0.45639   0.05262   0.111447  
         H         H         0.39752   0.73568   0.08876   0.107064  
         H         H         0.62710   0.90369   0.05878   0.109231  
         H         H         0.92374   0.14411   0.41224   0.110536  
         H         H         0.10111   0.37602   0.43434   0.107835  
         H         H         0.41798   0.64899   0.44733   0.112293  
         H         H         0.55135   0.92895   0.46394   0.113134  
         H         H         0.12717   0.21738   0.98833   0.099731  
         H         H         0.89296   0.38393   0.09546   0.108621  
         H         H         0.57654   0.66304   0.09913   0.108392  
         H         H         0.39499   0.89156   0.07764   0.102688  
         C         C         0.10873   0.13687   0.36578   -0.163847           
         C         C         0.88108   0.46997   0.32777   -0.170277           
         C         C         0.64383   0.66888   0.30905   -0.181874           
         C         C         0.37781   0.97057   0.34034   -0.167353           
         C         C         0.86252   0.17145   0.17063   -0.186925           
         C         C         0.12617   0.47881   0.12901   -0.169635           
         C         C         0.36411   0.67759   0.17491   -0.178377           
         C         C         0.64567   0.94968   0.15422   -0.192852           
         C         C         0.88255   0.12090   0.34204   -0.168289           
         C         C         0.13615   0.43251   0.33862   -0.183832           
         C         C         0.37743   0.62778   0.36946   -0.160632           
         C         C         0.60229   0.96563   0.37845   -0.163417           
         C         C         0.14655   0.16489   0.10757   -0.185611           
         C         C         0.86158   0.43391   0.16821   -0.189220           
         C         C         0.61928   0.63422   0.16071   -0.156472           
         C         C         0.36330   0.94130   0.15410   -0.187226           
         H         H         0.10395   0.11444   0.47138   0.123907  
         H         H         0.87791   0.49482   0.39084   0.124098  
         H         H         0.66203   0.67030   0.37180   0.118020  
         H         H         0.37280   0.99276   0.41412   0.110436  
         H         H         0.84580   0.17883   0.10047   0.113159  
         H         H         0.13358   0.50747   0.04259   0.121873  
         H         H         0.35005   0.68537   0.09435   0.114292  
         H         H         0.67140   0.95717   0.06340   0.105807  
         H         H         0.87985   0.08956   0.41194   0.126128  
         H         H         0.14882   0.42655   0.42413   0.110635  
         H         H         0.37133   0.59748   0.44831   0.125573  
         H         H         0.59573   0.98260   0.46934   0.126487  
         H         H         0.16999   0.16255   0.01105   0.108961  
         H         H         0.84537   0.43183   0.09786   0.114004  
         H         H         0.62021   0.60923   0.09964   0.123145  
         H         H         0.34885   0.94215   0.07549   0.101408  
         C         C         0.14006   0.13526   0.24346   0.202360  
         C         C         0.85730   0.46620   0.24913   0.194785  
         C         C         0.64544   0.63671   0.22889   0.198037  
         C         C         0.35659   0.97029   0.24880   0.202470  
         C         C         0.85906   0.13057   0.25935   0.204844  
         C         C         0.14559   0.47016   0.22906   0.195509  
         C         C         0.35667   0.63791   0.27493   0.201819  
         C         C         0.63699   0.97222   0.27016   0.199199  
         O         O         0.24366   0.63592   0.14948   -0.427799           
         H         H         0.30240   0.53246   0.34741   0.121398  
         H         H         0.20260   0.45673   0.30924   0.081299  
         H         H         0.76695   0.98027   0.19042   0.110312  
         O         O         0.68002   0.07283   0.31190   -0.431816           
         H         H         0.79304   0.13902   0.28643   0.081840  
         H         H         0.22189   0.63586   0.12203   0.374655  
         H         H         0.66487   0.04721   0.30714   0.309085  
         O         O         0.73013   0.12672   0.32137   -0.427724           
         H         H         0.81306   0.03086   0.20377   0.120735  
         H         H         0.70440   0.96188   0.21448   0.083674  
         H         H         0.25704   0.47699   0.35784   0.109332  
         O         O         0.19535   0.57724   0.15647   -0.437650           
         H         H         0.29734   0.64869   0.21169   0.086911  
         H         H         0.70445   0.12676   0.33461   0.374070  
         H         H         0.18015   0.54987   0.16692   0.305958  
         O         O         0.76451   0.62677   0.29414   -0.428962           
         H         H         0.69603   0.53680   0.16822   0.122674  
         H         H         0.79686   0.45873   0.19248   0.082542  
         H         H         0.23416   0.97751   0.21438   0.108949  
         O         O         0.31294   0.07526   0.25078   -0.434853           
         H         H         0.20779   0.14605   0.18482   0.082567  
         H         H         0.78691   0.62411   0.31688   0.374027  
         H         H         0.32688   0.04842   0.25833   0.310414  
         O         O         0.26493   0.13302   0.23600   -0.428292           
         H         H         0.18907   0.03118   0.21091   0.125111  
         H         H         0.29351   0.95827   0.22408   0.080898  
         H         H         0.74067   0.48194   0.16156   0.111984  
         O         O         0.81288   0.56867   0.28600   -0.433747           
         H         H         0.70886   0.64336   0.25072   0.084236  
         H         H         0.28864   0.13325   0.24793   0.373690  
         H         H         0.82708   0.54163   0.28290   0.304320  
         C         C         0.24232   0.58893   0.75636   0.158102  
         C         C         0.76084   0.00620   0.74605   -0.143399           
         C         C         0.74301   0.08965   0.75164   0.155927  
         C         C         0.25915   0.50454   0.79138   -0.142093           
         C         C         0.75590   0.58856   0.75713   0.150092  
         C         C         0.23588   0.00698   0.79433   -0.140375           
         C         C         0.25916   0.09252   0.71565   0.152353  
         C         C         0.74606   0.51049   0.68583   -0.141294           
         C         C         0.28252   0.53499   0.79870   -0.126979           
         C         C         0.71723   0.05945   0.75220   0.164742  
         C         C         0.78566   0.03569   0.74875   -0.128910           
         C         C         0.21872   0.55801   0.74596   0.165749  
         C         C         0.72097   0.53970   0.68466   -0.126410           
         C         C         0.28440   0.06218   0.71773   0.169432  
         C         C         0.21128   0.03687   0.79282   -0.124130           
         C         C         0.78187   0.55894   0.75665   0.162480  
         C         C         0.20168   0.48457   0.75675   0.087262  
         C         C         0.80334   0.10926   0.75391   0.091582  
         C         C         0.69935   0.98741   0.74679   0.089892  
         C         C         0.29994   0.61032   0.78214   0.089533  
         C         C         0.80287   0.48872   0.72517   0.080873  
         C         C         0.19654   0.11214   0.75189   0.089268  
         C         C         0.29899   0.98827   0.76026   0.085840  
         C         C         0.69849   0.60983   0.72430   0.095778  
         C         C         0.27471   0.57797   0.78007   -0.023319           
         C         C         0.72597   0.01749   0.74816   -0.069630           
         C         C         0.77725   0.07797   0.75171   -0.022161           
         C         C         0.22678   0.51542   0.76373   -0.062879           
         C         C         0.72525   0.57917   0.72143   -0.022053           
         C         C         0.27302   0.01887   0.75734   -0.063464           
         C         C         0.22242   0.08045   0.75370   -0.019788           
         C         C         0.77699   0.51941   0.72246   -0.061265           
         N         N         0.33043   0.60091   0.79939   -0.285951           
         N         N         0.66643   0.99739   0.76180   -0.277264           
         N         N         0.83441   0.09918   0.76346   -0.284632           
         N         N         0.17240   0.49588   0.72810   -0.285739           
         N         N         0.66809   0.60114   0.70921   -0.290893           
         N         N         0.33317   -0.00031  0.72852   -0.293651           
         N         N         0.16279   0.10160   0.78229   -0.280940           
         N         N         0.83197   0.49634   0.75563   -0.300271           
         N         N         0.05187   0.30076   0.76086   -0.257855           
         N         N         0.55421   0.79953   0.74649   -0.255183           
         N         N         0.94757   0.30104   0.73349   -0.253524           
         N         N         0.44796   0.80377   0.73909   -0.258689           
         H         H         0.02634   0.30210   0.75720   0.270556  
         H         H         0.52797   0.79808   0.75093   0.269792  
         H         H         0.97487   0.30253   0.70614   0.278953  
         H         H         0.47304   0.80395   0.74809   0.271155  
         C         C         0.07060   0.26498   0.76702   0.181920  
         C         C         0.92638   0.33395   0.76286   0.183217  
         C         C         0.57513   0.76549   0.73577   0.180421  
         C         C         0.42925   0.83940   0.72763   0.183807  
         C         C         0.92666   0.26469   0.75514   0.179349  
         C         C         0.07231   0.33518   0.76212   0.185116  
         C         C         0.42806   0.76895   0.73680   0.184383  
         C         C         0.57374   0.83454   0.74891   0.183823  
         C         C         0.10428   0.27732   0.77765   -0.186941           
         C         C         0.88981   0.31691   0.81167   -0.197681           
         C         C         0.61020   0.78045   0.72584   -0.188109           
         C         C         0.39645   0.82654   0.70991   -0.192844           
         C         C         0.89001   0.27494   0.80589   -0.186624           
         C         C         0.10593   0.31982   0.76885   -0.193427           
         C         C         0.39487   0.78374   0.72332   -0.185019           
         C         C         0.60897   0.82159   0.73965   -0.190381           
         H         H         0.12485   0.25628   0.78800   0.127260  
         H         H         0.86652   0.33443   0.84927   0.132151  
         H         H         0.63343   0.76208   0.71080   0.134651  
         H         H         0.37658   0.84728   0.68913   0.130623  
         H         H         0.86707   0.25258   0.83731   0.135808  
         H         H         0.12866   0.33870   0.76687   0.130455  
         H         H         0.37265   0.76433   0.72303   0.134121  
         H         H         0.63053   0.84132   0.74412   0.131635  
         N         N         0.50094   0.73908   0.74448   -0.411897           
         N         N         0.49995   0.86427   0.75410   -0.413321           
         N         N         -0.00000  0.23793   0.74206   -0.408279           
         N         N         0.00100   0.36389   0.74323   -0.416409           
         C         C         0.52763   0.71221   0.75041   0.192227  
         C         C         0.47219   0.89016   0.76131   0.186329  
         C         C         0.02828   0.21324   0.73447   0.189700  
         C         C         0.97392   0.38958   0.73238   0.193072  
         C         C         0.47256   0.71417   0.74515   0.192850  
         C         C         0.52733   0.88814   0.76590   0.188445  
         C         C         0.97450   0.21404   0.71860   0.186842  
         C         C         0.02823   0.38967   0.74672   0.194244  
         C         C         0.51521   0.66919   0.76066   -0.189323           
         C         C         0.48176   0.93082   0.78522   -0.194134           
         C         C         0.02110   0.17316   0.69995   -0.193368           
         C         C         0.98530   0.43318   0.71998   -0.193048           
         C         C         0.48187   0.67077   0.74922   -0.182627           
         C         C         0.51638   0.93025   0.78206   -0.187801           
         C         C         0.98781   0.17401   0.68669   -0.178945           
         C         C         0.01794   0.43287   0.73868   -0.188369           
         H         H         0.52976   0.64147   0.77457   0.127333  
         H         H         0.46422   0.95616   0.80364   0.124222  
         H         H         0.03923   0.14825   0.68659   0.127506  
         H         H         0.97064   0.46037   0.70049   0.125469  
         H         H         0.46534   0.64497   0.74381   0.127335  
         H         H         0.53257   0.95587   0.79101   0.125026  
         H         H         0.97375   0.15061   0.65593   0.129356  
         H         H         0.03296   0.45929   0.74824   0.124278  
         C         C         0.06069   0.22475   0.75373   -0.062545           
         C         C         0.93850   0.37626   0.74685   -0.080510           
         C         C         0.56311   0.72393   0.74142   -0.068108           
         C         C         0.43919   0.87965   0.74323   -0.084800           
         C         C         0.93905   0.22499   0.73422   -0.059506           
         C         C         0.06201   0.37708   0.75567   -0.079494           
         C         C         0.43838   0.72721   0.74401   -0.060346           
         C         C         0.56199   0.87516   0.75895   -0.070088           
         C         C         0.08739   0.19273   0.75648   0.069892  
         C         C         0.91113   0.40748   0.74959   0.069607  
         C         C         0.58953   0.69139   0.73769   0.064163  
         C         C         0.41227   0.91165   0.74453   0.077377  
         C         C         0.91205   0.19261   0.73903   0.064303  
         C         C         0.08924   0.40905   0.75395   0.074338  
         C         C         0.41059   0.69464   0.75480   0.063666  
         C         C         0.58920   0.90695   0.75897   0.073668  
         C         C         0.61337   0.69035   0.81980   -0.123662           
         C         C         0.37551   0.90075   0.82978   -0.113066           
         C         C         0.07806   0.15456   0.86350   -0.125056           
         C         C         0.90857   0.44128   0.82344   -0.119058           
         C         C         0.38959   0.70038   0.66033   -0.127983           
         C         C         0.62348   0.91405   0.64690   -0.120095           
         C         C         0.88969   0.20118   0.65069   -0.126226           
         C         C         0.09602   0.44937   0.65712   -0.121683           
         C         C         0.40376   0.65653   0.86255   -0.120079           
         C         C         0.58152   0.93166   0.86850   -0.124577           
         C         C         0.90761   0.15255   0.83437   -0.121116           
         C         C         0.11048   0.39926   0.84756   -0.121837           
         C         C         0.59233   0.65999   0.65302   -0.119810           
         C         C         0.42141   0.95351   0.66203   -0.118683           
         C         C         0.12275   0.19945   0.65314   -0.124827           
         C         C         0.88604   0.40435   0.67560   -0.119741           
         H         H         0.05090   0.14899   0.94409   0.108664  
         H         H         0.92605   0.44378   0.88812   0.111989  
         H         H         0.61027   0.71165   0.89616   0.105395  
         H         H         0.36775   0.86973   0.90310   0.110480  
         H         H         0.89371   0.23129   0.57195   0.100925  
         H         H         0.08102   0.45781   0.58031   0.113367  
         H         H         0.39594   0.72753   0.56762   0.094915  
         H         H         0.62942   0.89713   0.55613   0.107287  
         H         H         0.92388   0.14602   0.90662   0.113228  
         H         H         0.10397   0.37033   0.93358   0.103085  
         H         H         0.41876   0.65140   0.93995   0.110235  
         H         H         0.55588   0.92582   0.95989   0.104649  
         H         H         0.12992   0.22780   0.56503   0.109774  
         H         H         0.88840   0.38033   0.60979   0.109908  
         H         H         0.57539   0.66015   0.58429   0.108784  
         H         H         0.44927   0.96323   0.59284   0.117072  
         C         C         0.10311   0.12490   0.86917   -0.157539           
         C         C         0.88315   0.47065   0.82131   -0.167882           
         C         C         0.63964   0.66184   0.81060   -0.186950           
         C         C         0.34910   0.92851   0.82402   -0.184468           
         C         C         0.86368   0.17103   0.65860   -0.181406           
         C         C         0.12271   0.47822   0.65252   -0.171813           
         C         C         0.36185   0.67118   0.67844   -0.184034           
         C         C         0.64931   0.94325   0.64711   -0.194546           
         C         C         0.88201   0.12205   0.84103   -0.162207           
         C         C         0.13898   0.42644   0.83522   -0.186177           
         C         C         0.37792   0.62582   0.87395   -0.166397           
         C         C         0.60632   0.96279   0.86399   -0.168202           
         C         C         0.14819   0.17034   0.65995   -0.184614           
         C         C         0.85964   0.43247   0.67805   -0.184363           
         C         C         0.61733   0.62995   0.64920   -0.160391           
         C         C         0.39527   0.98236   0.66331   -0.158267           
         H         H         0.09596   0.09557   0.95273   0.123591  
         H         H         0.88176   0.49621   0.88036   0.124046  
         H         H         0.65679   0.66185   0.87865   0.114363  
         H         H         0.32111   0.91799   0.88994   0.109072  
         H         H         0.84789   0.17732   0.58430   0.112493  
         H         H         0.12707   0.50943   0.57857   0.127096  
         H         H         0.34665   0.67623   0.60162   0.111613  
         H         H         0.67541   0.94888   0.55821   0.109303  
         H         H         0.87828   0.09145   0.91662   0.125019  
         H         H         0.15447   0.41782   0.91031   0.112405  
         H         H         0.37355   0.59633   0.95573   0.125710  
         H         H         0.59996   0.98144   0.95002   0.122166  
         H         H         0.17511   0.17571   0.57676   0.116293  
         H         H         0.84203   0.42952   0.61408   0.111598  
         H         H         0.61907   0.60630   0.58192   0.125047  
         H         H         0.40313   0.01473   0.60106   0.123372  
         C         C         0.13892   0.13266   0.77014   0.203926  
         C         C         0.85763   0.46632   0.75117   0.192845  
         C         C         0.64255   0.63122   0.72299   0.204379  
         C         C         0.35842   0.97001   0.73903   0.199574  
         C         C         0.85927   0.13106   0.75457   0.202752  
         C         C         0.14547   0.46638   0.73743   0.196484  
         C         C         0.35564   0.63304   0.78519   0.204445  
         C         C         0.64102   0.96793   0.75652   0.200832  
         O         O         0.23257   0.62941   0.74220   -0.429302           
         H         H         0.30758   0.52744   0.81878   0.119735  
         H         H         0.20755   0.45146   0.77654   0.082006  
         H         H         0.76756   0.97392   0.74251   0.111652  
         O         O         0.68462   0.07277   0.75598   -0.433479           
         H         H         0.79536   0.14159   0.74909   0.082875  
         H         H         0.20953   0.62853   0.72471   0.372725  
         H         H         0.66940   0.04579   0.76197   0.308042  
         O         O         0.73383   0.13017   0.75155   -0.425396           
         H         H         0.81244   0.02775   0.74787   0.119391  
         H         H         0.70717   0.95554   0.73561   0.081954  
         H         H         0.26528   0.47174   0.80643   0.110245  
         O         O         0.18854   0.57124   0.72036   -0.436986           
         H         H         0.29198   0.64276   0.76864   0.083716  
         H         H         0.70899   0.13045   0.75208   0.374412  
         H         H         0.17553   0.54384   0.71324   0.303238  
         O         O         0.76102   0.62627   0.79257   -0.424568           
         H         H         0.69725   0.53365   0.65581   0.121799  
         H         H         0.79701   0.45824   0.70242   0.084191  
         H         H         0.22705   0.97367   0.82550   0.109993  
         O         O         0.31910   0.07645   0.68028   -0.433190           
         H         H         0.20703   0.14515   0.72549   0.077470  
         H         H         0.78303   0.62473   0.81853   0.375198  
         H         H         0.33270   0.04924   0.69122   0.305165  
         O         O         0.27127   0.13410   0.67422   -0.431408           
         H         H         0.18273   0.02835   0.82225   0.121359  
         H         H         0.28909   0.95507   0.78914   0.081813  
         H         H         0.74264   0.48014   0.65869   0.112193  
         O         O         0.81088   0.56997   0.79027   -0.430589           
         H         H         0.70578   0.64091   0.73912   0.079077  
         H         H         0.29722   0.13523   0.65655   0.374666  
         H         H         0.82592   0.54409   0.78605   0.309330 

