
##########################################################################
#               Crystallographic Information Format file
#               Produced by PyCifRW module
#
#  This is a CIF file.  CIF has been adopted by the International
#  Union of Crystallography as the standard for data archiving and
#  transmission.
#
#  For information on this file format, follow the CIF links at
#  http://www.iucr.org
##########################################################################

data_image0

_cell_length_a                          44.0605
_cell_length_b                          43.8643
_cell_length_c                          8.09898
_cell_angle_alpha                       89.5806
_cell_angle_beta                        118.421
_cell_angle_gamma                       120.394
_symmetry_space_group_name_H-M          'P 1'
_space_group_name_Hall                  'P 1'
loop_
  _atom_site_type_symbol
  _atom_site_label
  _atom_site_fract_x
  _atom_site_fract_y
  _atom_site_fract_z
  _atom_site_charge
         C         C         0.85959   0.44940   0.27272   0.017818  
         C         C         0.55589   0.40961   0.25417   0.030024  
         C         C         0.59690   0.14866   0.27615   0.016544  
         C         C         0.14756   0.55468   0.25821   0.018954  
         C         C         0.44194   0.58687   0.23638   0.030253  
         C         C         0.41191   0.85477   0.24221   0.020406  
         N         N         0.87804   0.43490   0.25821   -0.160528           
         N         N         0.56859   0.44356   0.25360   -0.148841           
         N         N         0.56351   0.12807   0.28109   -0.146488           
         N         N         0.12451   0.56663   0.23339   -0.162816           
         N         N         0.43061   0.55392   0.25361   -0.151260           
         N         N         0.44405   0.87471   0.22741   -0.144427           
         N         N         0.91471   0.45709   0.26650   -0.074559           
         N         N         0.54769   0.45722   0.26639   -0.075098           
         N         N         0.55027   0.09249   0.28367   -0.066633           
         N         N         0.09077   0.54611   0.24961   -0.076309           
         N         N         0.45176   0.54010   0.24550   -0.072687           
         N         N         0.45796   0.91065   0.23061   -0.064915           
         C         C         0.00188   0.53424   0.25112   -0.073907           
         C         C         0.46781   0.46498   0.26170   -0.077533           
         C         C         0.53668   0.00235   0.24912   -0.078845           
         C         C         0.00378   0.46900   0.26661   -0.077298           
         C         C         0.53178   0.53231   0.25398   -0.075780           
         C         C         0.47145   0.00077   0.26453   -0.075463           
         C         C         0.97153   0.50168   0.25555   -0.062054           
         C         C         0.50150   0.46828   0.26678   -0.058263           
         C         C         0.53588   0.03356   0.26401   -0.045339           
         C         C         0.03402   0.50156   0.26114   -0.057682           
         C         C         0.49807   0.52896   0.24859   -0.059784           
         C         C         0.47225   0.96954   0.24974   -0.047971           
         C         C         0.97257   0.47022   0.26407   -0.053162           
         C         C         0.53241   0.50086   0.26287   -0.041600           
         C         C         0.50439   0.03285   0.27168   -0.060024           
         C         C         0.03319   0.53311   0.25408   -0.052630           
         C         C         0.46721   0.49647   0.25316   -0.042578           
         C         C         0.50371   0.97026   0.24182   -0.056045           
         C         C         0.93444   0.49383   0.25519   0.392346  
         C         C         0.51105   0.44002   0.27324   0.401735  
         C         C         0.56532   0.07129   0.26832   0.394960  
         C         C         0.07066   0.50916   0.25816   0.394499  
         C         C         0.48846   0.55714   0.23964   0.400313  
         C         C         0.44299   0.93183   0.24676   0.395452  
         C         C         0.93645   0.44099   0.27153   0.405030  
         C         C         0.56234   0.49457   0.26055   0.407925  
         C         C         0.51299   0.07050   0.28723   0.402870  
         C         C         0.06913   0.56225   0.24489   0.405690  
         C         C         0.43726   0.50290   0.25447   0.407981  
         C         C         0.49521   0.93265   0.22718   0.397662  
         H         H         0.14107   0.52864   0.29023   0.099086  
         H         H         0.46726   0.60373   0.21332   0.097933  
         H         H         0.39497   0.86531   0.25299   0.095919  
         H         H         0.87257   0.47891   0.29678   0.098804  
         H         H         0.52952   0.39142   0.26843   0.098340  
         H         H         0.61567   0.13914   0.27917   0.101145  
         O         O         0.08125   0.48817   0.25896   -0.387371           
         O         O         0.50793   0.58843   0.22968   -0.391310           
         O         O         0.41289   0.92117   0.26056   -0.400051           
         O         O         0.92286   0.51429   0.24639   -0.391295           
         O         O         0.49181   0.40863   0.28237   -0.390003           
         O         O         0.59560   0.08199   0.25615   -0.399288           
         O         O         0.07883   0.59302   0.23192   -0.365044           
         O         O         0.40734   0.48240   0.26643   -0.375855           
         O         O         0.51458   0.92168   0.21417   -0.360575           
         O         O         0.92685   0.41025   0.28438   -0.359943           
         O         O         0.59227   0.51529   0.24893   -0.376399           
         O         O         0.49388   0.08159   0.30214   -0.361379           
         H         H         0.00435   0.44448   0.27165   0.158868  
         H         H         0.55573   0.55753   0.25040   0.146392  
         H         H         0.44693   0.00004   0.27043   0.146356  
         H         H         0.00121   0.55869   0.24564   0.156194  
         H         H         0.44372   0.43973   0.26425   0.146509  
         H         H         0.56117   0.00302   0.24322   0.149275  
         C         C         0.19515   0.61112   0.20530   -0.106187           
         C         C         0.23146   0.63244   0.20534   -0.122218           
         C         C         0.38779   0.58364   0.28093   -0.110735           
         C         C         0.36829   0.59988   0.28907   -0.132714           
         C         C         0.41766   0.80069   0.23817   -0.096907           
         C         C         0.40285   0.76456   0.24458   -0.130528           
         C         C         0.79878   0.38650   0.20793   -0.095925           
         C         C         0.76048   0.36437   0.18982   -0.124943           
         C         C         0.61207   0.41564   0.21701   -0.111887           
         C         C         0.63217   0.40035   0.20510   -0.128221           
         C         C         0.58576   0.19960   0.24117   -0.092063           
         C         C         0.59930   0.23530   0.22962   -0.130326           
         H         H         0.17431   0.61994   0.17038   0.124733  
         H         H         0.23826   0.65785   0.16600   0.110901  
         H         H         0.37873   0.55667   0.30407   0.119971  
         H         H         0.34451   0.58542   0.32346   0.102029  
         H         H         0.44457   0.81679   0.22537   0.120722  
         H         H         0.41833   0.75256   0.23236   0.106978  
         H         H         0.81304   0.37430   0.18321   0.120839  
         H         H         0.74471   0.33445   0.14795   0.106312  
         H         H         0.62261   0.44381   0.21107   0.120010  
         H         H         0.65827   0.41721   0.18789   0.105528  
         H         H         0.55626   0.18156   0.23127   0.123850  
         H         H         0.57943   0.24455   0.20937   0.108449  
         C         C         0.36300   0.79605   0.26332   -0.124386           
         C         C         0.34879   0.76008   0.27290   -0.132891           
         C         C         0.21097   0.56569   0.28940   -0.125136           
         C         C         0.24769   0.58754   0.29231   -0.136043           
         C         C         0.43223   0.63748   0.22119   -0.116918           
         C         C         0.41197   0.65325   0.22583   -0.134462           
         C         C         0.64797   0.20945   0.27748   -0.123346           
         C         C         0.66151   0.24536   0.26752   -0.137092           
         C         C         0.80088   0.44093   0.28475   -0.127519           
         C         C         0.76263   0.41853   0.26826   -0.134868           
         C         C         0.56393   0.35827   0.23950   -0.120407           
         C         C         0.58434   0.34320   0.22822   -0.135274           
         H         H         0.34755   0.80844   0.27226   0.110568  
         H         H         0.32270   0.74538   0.29211   0.104886  
         H         H         0.20305   0.53970   0.32407   0.113142  
         H         H         0.26825   0.57831   0.33109   0.107101  
         H         H         0.45692   0.65201   0.19221   0.107711  
         H         H         0.42076   0.67968   0.19631   0.106642  
         H         H         0.66705   0.19935   0.29516   0.112657  
         H         H         0.69109   0.26242   0.27750   0.108610  
         H         H         0.81680   0.47094   0.32313   0.115095  
         H         H         0.74975   0.43163   0.29896   0.109851  
         H         H         0.53756   0.34185   0.25584   0.111320  
         H         H         0.57314   0.31513   0.23657   0.106996  
         C         C         0.35263   0.70468   0.26969   0.069504  
         C         C         0.29826   0.64476   0.25547   0.075618  
         C         C         0.35813   0.65172   0.26695   0.070405  
         C         C         0.39775   0.81704   0.24685   0.061629  
         C         C         0.18435   0.57731   0.24834   0.060844  
         C         C         0.42034   0.60235   0.24746   0.056207  
         C         C         0.36824   0.74328   0.26332   0.067462  
         C         C         0.25893   0.62146   0.25026   0.077185  
         C         C         0.37967   0.63501   0.26107   0.066694  
         C         C         0.37456   0.68931   0.28034   -0.180118           
         C         C         0.31482   0.68197   0.26023   -0.173744           
         C         C         0.31984   0.62997   0.25323   -0.172756           
         C         C         0.65099   0.29704   0.22342   0.064715  
         C         C         0.70150   0.35590   0.21067   0.075284  
         C         C         0.64176   0.34810   0.20565   0.068867  
         C         C         0.60990   0.18592   0.26456   0.059358  
         C         C         0.81972   0.42534   0.25566   0.061780  
         C         C         0.57752   0.39482   0.23530   0.058067  
         C         C         0.63739   0.25926   0.24132   0.071544  
         C         C         0.74135   0.37966   0.22024   0.077134  
         C         C         0.61915   0.36376   0.21124   0.071189  
         C         C         0.62868   0.31186   0.21457   -0.177447           
         C         C         0.68734   0.31966   0.22121   -0.167549           
         C         C         0.67803   0.36943   0.20120   -0.168115           
         H         H         0.29804   0.69353   0.25885   0.102338  
         H         H         0.30590   0.60059   0.23487   0.099805  
         H         H         0.40471   0.70673   0.29630   0.103657  
         H         H         0.70553   0.30914   0.23085   0.100381  
         H         H         0.68835   0.39720   0.18999   0.102044  
         H         H         0.60126   0.29519   0.22217   0.100743  
         C         C         0.85528   0.44688   0.77234   0.019245  
         C         C         0.55333   0.41008   0.74194   0.029646  
         C         C         0.59140   0.14599   0.76723   0.020252  
         C         C         0.14290   0.55100   0.75493   0.021231  
         C         C         0.44581   0.59079   0.76711   0.025738  
         C         C         0.40618   0.85240   0.74064   0.015327  
         N         N         0.87349   0.43221   0.75700   -0.156873           
         N         N         0.56873   0.44500   0.75802   -0.150354           
         N         N         0.55985   0.12622   0.78629   -0.145057           
         N         N         0.11995   0.56306   0.73083   -0.168491           
         N         N         0.43061   0.55582   0.74731   -0.148109           
         N         N         0.43913   0.87263   0.73196   -0.144382           
         N         N         0.91026   0.45429   0.76602   -0.075843           
         N         N         0.54743   0.45876   0.76431   -0.077618           
         N         N         0.54584   0.09028   0.78288   -0.063939           
         N         N         0.08612   0.54253   0.74663   -0.070430           
         N         N         0.45334   0.54289   0.75209   -0.076032           
         N         N         0.45304   0.90850   0.73326   -0.066117           
         C         C         0.99756   0.53113   0.74967   -0.076799           
         C         C         0.46840   0.46736   0.76175   -0.075123           
         C         C         0.53225   0.00008   0.75228   -0.077195           
         C         C         -0.00034  0.46604   0.76957   -0.072960           
         C         C         0.53296   0.53472   0.75736   -0.074959           
         C         C         0.46689   0.99879   0.76468   -0.076212           
         C         C         0.96720   0.49868   0.75520   -0.057589           
         C         C         0.50197   0.47050   0.76681   -0.058926           
         C         C         0.53158   0.03141   0.76607   -0.047310           
         C         C         0.02987   0.49842   0.76297   -0.059069           
         C         C         0.49937   0.53160   0.75250   -0.058929           
         C         C         0.46760   0.96750   0.75133   -0.046286           
         C         C         0.96830   0.46727   0.76562   -0.052210           
         C         C         0.53315   0.50303   0.76412   -0.042949           
         C         C         0.49999   0.03078   0.77218   -0.058160           
         C         C         0.02889   0.52989   0.75367   -0.052807           
         C         C         0.46814   0.49900   0.75453   -0.042733           
         C         C         0.49916   0.96809   0.74493   -0.056436           
         C         C         0.92989   0.49087   0.75241   0.392741  
         C         C         0.51090   0.44191   0.77160   0.403854  
         C         C         0.56104   0.06911   0.76963   0.395813  
         C         C         0.06643   0.50586   0.75923   0.393629  
         C         C         0.49025   0.56010   0.74743   0.402796  
         C         C         0.43805   0.92982   0.74733   0.393388  
         C         C         0.93223   0.43823   0.77425   0.405549  
         C         C         0.56273   0.49631   0.76087   0.410073  
         C         C         0.50843   0.06835   0.78509   0.397973  
         C         C         0.06464   0.55880   0.74252   0.401513  
         C         C         0.43815   0.50538   0.75537   0.407363  
         C         C         0.49046   0.93041   0.73050   0.400573  
         H         H         0.13616   0.52478   0.78507   0.099294  
         H         H         0.47621   0.61061   0.78745   0.103356  
         H         H         0.38838   0.86253   0.74447   0.099831  
         H         H         0.86852   0.47646   0.79748   0.098598  
         H         H         0.52442   0.39130   0.73647   0.101421  
         H         H         0.60800   0.13545   0.75237   0.098835  
         O         O         0.07719   0.48494   0.76226   -0.385290           
         O         O         0.50976   0.59155   0.73980   -0.387594           
         O         O         0.40767   0.91925   0.75849   -0.399517           
         O         O         0.91796   0.51114   0.73946   -0.392921           
         O         O         0.49127   0.41056   0.78025   -0.389941           
         O         O         0.59148   0.07984   0.75877   -0.399920           
         O         O         0.07425   0.58951   0.72864   -0.363604           
         O         O         0.40791   0.48469   0.76481   -0.376661           
         O         O         0.50970   0.91929   0.71744   -0.359294           
         O         O         0.92282   0.40770   0.79096   -0.360554           
         O         O         0.59276   0.51679   0.74959   -0.376999           
         O         O         0.48885   0.07928   0.79585   -0.360937           
         H         H         0.00038   0.44162   0.77638   0.157280  
         H         H         0.55718   0.55996   0.75539   0.147503  
         H         H         0.44241   0.99835   0.76948   0.146799  
         H         H         0.99686   0.55556   0.74220   0.153669  
         H         H         0.44412   0.44209   0.76311   0.146645  
         H         H         0.55675   0.00061   0.74711   0.147290  
         C         C         0.19158   0.60806   0.70967   -0.101300           
         C         C         0.22851   0.62975   0.71505   -0.125483           
         C         C         0.38169   0.58116   0.73463   -0.109283           
         C         C         0.35922   0.59533   0.72605   -0.129151           
         C         C         0.41515   0.80008   0.76315   -0.093924           
         C         C         0.40035   0.76386   0.76751   -0.129225           
         C         C         0.79438   0.38396   0.70591   -0.096597           
         C         C         0.75602   0.36177   0.68711   -0.124936           
         C         C         0.61283   0.41645   0.73701   -0.111622           
         C         C         0.63283   0.40067   0.73013   -0.128783           
         C         C         0.58435   0.19926   0.76698   -0.095311           
         C         C         0.59825   0.23514   0.75786   -0.130725           
         H         H         0.17093   0.61709   0.67474   0.122314  
         H         H         0.23578   0.65545   0.67850   0.111072  
         H         H         0.36916   0.55201   0.72209   0.121363  
         H         H         0.32883   0.57648   0.70656   0.108295  
         H         H         0.44486   0.81787   0.77458   0.125209  
         H         H         0.41956   0.75396   0.78558   0.107891  
         H         H         0.80878   0.37189   0.68140   0.119718  
         H         H         0.74019   0.33183   0.64495   0.104701  
         H         H         0.62592   0.44559   0.74728   0.121792  
         H         H         0.66184   0.41827   0.73569   0.109426  
         H         H         0.55722   0.18265   0.77748   0.119637  
         H         H         0.58152   0.24621   0.76387   0.106041  
         C         C         0.35352   0.79129   0.72922   -0.124566           
         C         C         0.33844   0.75471   0.72934   -0.132971           
         C         C         0.20641   0.56196   0.78699   -0.122075           
         C         C         0.24373   0.58417   0.79534   -0.136552           
         C         C         0.43700   0.64187   0.77456   -0.119391           
         C         C         0.41443   0.65591   0.76725   -0.131645           
         C         C         0.64030   0.20547   0.74967   -0.122734           
         C         C         0.65386   0.24134   0.73936   -0.136403           
         C         C         0.79647   0.43841   0.78319   -0.128389           
         C         C         0.75815   0.41597   0.76606   -0.132068           
         C         C         0.55867   0.35730   0.71686   -0.119340           
         C         C         0.57883   0.34165   0.70911   -0.133722           
         H         H         0.33521   0.80205   0.71550   0.112354  
         H         H         0.30820   0.73749   0.71315   0.108212  
         H         H         0.19784   0.53545   0.81593   0.113462  
         H         H         0.26390   0.57457   0.83223   0.107566  
         H         H         0.46722   0.66006   0.79080   0.115742  
         H         H         0.42813   0.68521   0.78162   0.109020  
         H         H         0.65669   0.19387   0.74456   0.109526  
         H         H         0.68047   0.25667   0.72429   0.105504  
         H         H         0.81247   0.46844   0.82205   0.114318  
         H         H         0.74525   0.42905   0.79681   0.109312  
         H         H         0.52992   0.34035   0.71477   0.112878  
         H         H         0.56489   0.31247   0.69877   0.108803  
         C         C         0.34638   0.70145   0.75653   0.066307  
         C         C         0.29549   0.64249   0.76701   0.074314  
         C         C         0.35247   0.64886   0.74937   0.065190  
         C         C         0.39200   0.81459   0.74514   0.060124  
         C         C         0.17997   0.57376   0.74745   0.056987  
         C         C         0.42127   0.60434   0.76031   0.058627  
         C         C         0.36163   0.74003   0.75047   0.070605  
         C         C         0.25605   0.61882   0.76126   0.080169  
         C         C         0.37508   0.63320   0.74449   0.071143  
         C         C         0.36576   0.68516   0.74171   -0.174342           
         C         C         0.31170   0.67976   0.77266   -0.169208           
         C         C         0.31709   0.62798   0.76077   -0.165876           
         C         C         0.64699   0.29513   0.72642   0.068308  
         C         C         0.69724   0.35349   0.70912   0.077395  
         C         C         0.63832   0.34644   0.70869   0.066996  
         C         C         0.60520   0.18368   0.76257   0.060376  
         C         C         0.81531   0.42281   0.75446   0.061973  
         C         C         0.57520   0.39493   0.73062   0.056687  
         C         C         0.63316   0.25723   0.74249   0.070366  
         C         C         0.73696   0.37712   0.71788   0.074063  
         C         C         0.61647   0.36281   0.71523   0.072365  
         C         C         0.62516   0.31032   0.72024   -0.179433           
         C         C         0.68330   0.31750   0.72346   -0.171273           
         C         C         0.67374   0.36708   0.69740   -0.171499           
         H         H         0.29743   0.69227   0.79349   0.103364  
         H         H         0.30570   0.59961   0.76252   0.099364  
         H         H         0.39082   0.70067   0.71649   0.099871  
         H         H         0.70177   0.30710   0.73666   0.100675  
         H         H         0.68321   0.39422   0.67761   0.101488  
         H         H         0.59820   0.29415   0.73181   0.099935 

