
##########################################################################
#               Crystallographic Information Format file
#               Produced by PyCifRW module
#
#  This is a CIF file.  CIF has been adopted by the International
#  Union of Crystallography as the standard for data archiving and
#  transmission.
#
#  For information on this file format, follow the CIF links at
#  http://www.iucr.org
##########################################################################

data_image0

_cell_length_a                          29.0097
_cell_length_b                          29.1862
_cell_length_c                          7.79636
_cell_angle_alpha                       114.178
_cell_angle_beta                        93.3138
_cell_angle_gamma                       120.474
_symmetry_space_group_name_H-M          'P 1'
_space_group_name_Hall                  'P 1'
loop_
  _atom_site_type_symbol
  _atom_site_label
  _atom_site_fract_x
  _atom_site_fract_y
  _atom_site_fract_z
  _atom_site_charge
         C         C         0.36813   0.59016   0.23562   0.087717  
         C         C         0.41065   0.77757   0.23251   0.074248  
         C         C         0.22319   0.63352   0.24909   0.077656  
         C         C         0.62915   0.41138   0.26122   0.083915  
         C         C         0.58989   0.22397   0.25451   0.072075  
         C         C         0.77663   0.37172   0.24380   0.078214  
         N         N         0.41995   0.60777   0.24101   -0.174978           
         N         N         0.39384   0.81204   0.23657   -0.194459           
         N         N         0.18876   0.58330   0.25453   -0.177934           
         N         N         0.57738   0.39324   0.25908   -0.175573           
         N         N         0.60702   0.18951   0.24657   -0.189973           
         N         N         0.81040   0.42271   0.24160   -0.177047           
         N         N         0.43864   0.57385   0.24732   -0.071209           
         N         N         0.42800   0.86548   0.23519   -0.068574           
         N         N         0.13562   0.56576   0.25956   -0.059151           
         N         N         0.55833   0.42730   0.25761   -0.072914           
         N         N         0.57306   0.13598   0.24773   -0.069998           
         N         N         0.86376   0.44127   0.23741   -0.060127           
         C         C         0.44687   0.45366   0.26071   -0.074763           
         C         C         0.54883   0.99745   0.23258   -0.077371           
         C         C         0.00326   0.55478   0.24356   -0.079157           
         C         C         0.54988   0.54743   0.24670   -0.078792           
         C         C         0.45254   0.00418   0.25169   -0.073290           
         C         C         0.99697   0.45454   0.26203   -0.074682           
         C         C         0.45303   0.50399   0.25809   -0.062175           
         C         C         0.49840   0.95184   0.23337   -0.060817           
         C         C         0.04906   0.55059   0.25286   -0.043839           
         C         C         0.54359   0.49705   0.24877   -0.061133           
         C         C         0.50290   0.04968   0.25023   -0.062388           
         C         C         0.95114   0.45860   0.25160   -0.047563           
         C         C         0.50284   0.54923   0.25090   -0.042959           
         C         C         0.45193   0.95521   0.24299   -0.054967           
         C         C         0.04591   0.50207   0.26214   -0.062750           
         C         C         0.49386   0.45173   0.25596   -0.043655           
         C         C         0.54935   0.04634   0.24044   -0.050334           
         C         C         0.95404   0.50691   0.24175   -0.062206           
         C         C         0.41128   0.51942   0.26028   0.396426  
         C         C         0.48415   0.89444   0.22863   0.390002  
         C         C         0.10609   0.59173   0.24697   0.393021  
         C         C         0.58535   0.48177   0.24541   0.399089  
         C         C         0.51687   0.10682   0.25410   0.389880  
         C         C         0.89425   0.41689   0.25588   0.393731  
         C         C         0.49450   0.59427   0.24052   0.401867  
         C         C         0.40603   0.90044   0.24611   0.396396  
         C         C         0.10118   0.51090   0.26874   0.393407  
         C         C         0.50237   0.40650   0.26462   0.403633  
         C         C         0.59502   0.10092   0.23581   0.392516  
         C         C         0.89812   0.49698   0.23189   0.395464  
         H         H         0.65910   0.45382   0.26272   0.124487  
         H         H         0.54798   0.21174   0.26014   0.124498  
         H         H         0.78902   0.34193   0.24030   0.121542  
         H         H         0.33766   0.54806   0.23502   0.122059  
         H         H         0.45267   0.78954   0.22946   0.125033  
         H         H         0.21186   0.66396   0.25095   0.122464  
         O         O         0.63259   0.50917   0.23319   -0.375329           
         O         O         0.48705   0.12512   0.25918   -0.363896           
         O         O         0.87733   0.37259   0.27847   -0.383117           
         O         O         0.36396   0.49233   0.27224   -0.373269           
         O         O         0.51361   0.87568   0.22250   -0.363372           
         O         O         0.12413   0.63673   0.22784   -0.378511           
         O         O         0.47118   0.36213   0.28169   -0.372361           
         O         O         0.64100   0.11445   0.21990   -0.354504           
         O         O         0.88223   0.52722   0.21981   -0.360201           
         O         O         0.52580   0.63832   0.22202   -0.373348           
         O         O         0.35975   0.88653   0.25952   -0.357205           
         O         O         0.11624   0.47990   0.27982   -0.363421           
         H         H         0.44737   0.67147   0.23938   0.314345  
         H         H         0.32981   0.77490   0.23529   0.312886  
         H         H         0.22475   0.55473   0.24485   0.316999  
         H         H         0.55115   0.32917   0.25775   0.313925  
         H         H         0.67125   0.22787   0.24796   0.312803  
         H         H         0.77315   0.44970   0.25016   0.316657  
         H         H         0.58843   0.58259   0.24102   0.154199  
         H         H         0.41639   0.00654   0.25911   0.157334  
         H         H         0.99458   0.41698   0.26954   0.151020  
         H         H         0.40833   0.41846   0.26629   0.149179  
         H         H         0.58505   0.99518   0.22628   0.160455  
         H         H         0.00572   0.59258   0.23785   0.156202  
         C         C         0.61012   0.31723   0.25766   0.310258  
         C         C         0.64664   0.37320   0.25923   -0.222048           
         C         C         0.68404   0.29944   0.25207   0.307035  
         C         C         0.62823   0.27992   0.25481   -0.227651           
         C         C         0.70206   0.39133   0.25502   0.315657  
         C         C         0.72126   0.35479   0.25090   -0.223008           
         C         C         0.38892   0.68423   0.23389   0.309879  
         C         C         0.35148   0.62867   0.23375   -0.221185           
         C         C         0.31597   0.70349   0.23582   0.309076  
         C         C         0.37167   0.72201   0.23353   -0.229779           
         C         C         0.29624   0.61163   0.23764   0.313877  
         C         C         0.27809   0.64888   0.24016   -0.223789           
         O         O         0.55757   0.29788   0.25945   -0.379434           
         O         O         0.70328   0.26630   0.24960   -0.380218           
         O         O         0.73515   0.44342   0.25299   -0.376236           
         O         O         0.44143   0.70269   0.23366   -0.379510           
         O         O         0.29739   0.73690   0.23501   -0.379970           
         O         O         0.26232   0.55997   0.24114   -0.375783           
         C         C         0.37097   0.58868   0.73506   0.084500  
         C         C         0.40989   0.77478   0.73203   0.074803  
         C         C         0.22369   0.62847   0.74895   0.076487  
         C         C         0.63192   0.40975   0.75983   0.088288  
         C         C         0.58879   0.22116   0.75397   0.074306  
         C         C         0.77708   0.36636   0.74446   0.080347  
         N         N         0.42303   0.60731   0.74049   -0.177481           
         N         N         0.39244   0.80881   0.73734   -0.192062           
         N         N         0.19018   0.57810   0.75472   -0.176056           
         N         N         0.58055   0.39292   0.75967   -0.177110           
         N         N         0.60533   0.18634   0.74780   -0.193628           
         N         N         0.81178   0.41718   0.74255   -0.180131           
         N         N         0.44231   0.57375   0.74543   -0.067179           
         N         N         0.42613   0.86224   0.73539   -0.070940           
         N         N         0.13720   0.56005   0.76240   -0.058185           
         N         N         0.56211   0.42737   0.75684   -0.066877           
         N         N         0.57099   0.13277   0.74818   -0.067665           
         N         N         0.86533   0.43550   0.74135   -0.058044           
         C         C         0.45130   0.45459   0.76221   -0.078522           
         C         C         0.54647   0.99417   0.73192   -0.076879           
         C         C         0.00461   0.54779   0.74572   -0.080526           
         C         C         0.55417   0.54811   0.74699   -0.076519           
         C         C         0.45010   0.00081   0.75085   -0.075908           
         C         C         0.99834   0.44751   0.76341   -0.075537           
         C         C         0.45741   0.50474   0.75896   -0.060648           
         C         C         0.49607   0.94857   0.73276   -0.059558           
         C         C         0.05037   0.54361   0.75524   -0.044563           
         C         C         0.54797   0.49776   0.74942   -0.058320           
         C         C         0.50051   0.04641   0.74990   -0.060552           
         C         C         0.95246   0.45163   0.75349   -0.044620           
         C         C         0.50712   0.54995   0.75119   -0.044954           
         C         C         0.44955   0.95183   0.74244   -0.049741           
         C         C         0.04757   0.49532   0.76476   -0.061502           
         C         C         0.49827   0.45265   0.75727   -0.047074           
         C         C         0.54699   0.04304   0.74017   -0.052506           
         C         C         0.95554   0.50013   0.74440   -0.060428           
         C         C         0.41540   0.51975   0.76052   0.394214  
         C         C         0.48223   0.89145   0.72881   0.388833  
         C         C         0.10692   0.58498   0.74813   0.390669  
         C         C         0.58957   0.48209   0.74537   0.397075  
         C         C         0.51482   0.10385   0.75476   0.387935  
         C         C         0.89509   0.40989   0.75579   0.394041  
         C         C         0.49845   0.59476   0.74017   0.403043  
         C         C         0.40399   0.89715   0.74712   0.396615  
         C         C         0.10325   0.50484   0.77096   0.392157  
         C         C         0.50653   0.40744   0.76643   0.400977  
         C         C         0.59274   0.09756   0.73564   0.395393  
         C         C         0.89981   0.49052   0.73304   0.392118  
         H         H         0.66227   0.45167   0.75927   0.121824  
         H         H         0.54686   0.20936   0.75795   0.124175  
         H         H         0.78852   0.33596   0.74247   0.122705  
         H         H         0.34104   0.54630   0.73400   0.124136  
         H         H         0.45187   0.78709   0.72701   0.124043  
         H         H         0.21159   0.65844   0.75233   0.121714  
         O         O         0.63682   0.50929   0.73322   -0.373295           
         O         O         0.48545   0.12269   0.76062   -0.363324           
         O         O         0.87693   0.36455   0.77291   -0.379055           
         O         O         0.36827   0.49282   0.77410   -0.372627           
         O         O         0.51205   0.87312   0.72332   -0.363421           
         O         O         0.12381   0.62943   0.72653   -0.381523           
         O         O         0.47516   0.36348   0.78537   -0.374020           
         O         O         0.63873   0.11103   0.71980   -0.356889           
         O         O         0.88430   0.52076   0.71769   -0.362795           
         O         O         0.52974   0.63903   0.72266   -0.372515           
         O         O         0.35797   0.88337   0.76306   -0.356955           
         O         O         0.11918   0.47451   0.78188   -0.358847           
         H         H         0.44909   0.67075   0.73812   0.313902  
         H         H         0.32861   0.77096   0.73815   0.314108  
         H         H         0.22701   0.55077   0.74461   0.316161  
         H         H         0.55311   0.32884   0.75755   0.313129  
         H         H         0.66975   0.22370   0.74938   0.312784  
         H         H         0.77567   0.44536   0.75040   0.317331  
         H         H         0.59273   0.58319   0.74107   0.150409  
         H         H         0.41401   0.00333   0.75798   0.158184  
         H         H         0.99591   0.40967   0.76881   0.151884  
         H         H         0.41285   0.41966   0.76903   0.153204  
         H         H         0.58265   0.99183   0.72527   0.157710  
         H         H         0.00702   0.58540   0.73869   0.155006  
         C         C         0.61102   0.31516   0.75691   0.309960  
         C         C         0.64849   0.37087   0.75808   -0.223100           
         C         C         0.68359   0.29543   0.75147   0.308042  
         C         C         0.62795   0.27691   0.75422   -0.227830           
         C         C         0.70375   0.38791   0.75395   0.313971  
         C         C         0.72183   0.35052   0.75032   -0.225036           
         C         C         0.38982   0.68208   0.73349   0.312262  
         C         C         0.35327   0.62635   0.73329   -0.222177           
         C         C         0.31591   0.69973   0.73642   0.308093  
         C         C         0.37166   0.71911   0.73352   -0.228447           
         C         C         0.29784   0.60832   0.73683   0.316808  
         C         C         0.27872   0.64475   0.73944   -0.222689           
         O         O         0.55867   0.29688   0.75855   -0.379172           
         O         O         0.70198   0.26167   0.74962   -0.378712           
         O         O         0.73788   0.43984   0.75229   -0.375979           
         O         O         0.44244   0.70152   0.73285   -0.381080           
         O         O         0.29666   0.73274   0.73787   -0.382258           
         O         O         0.26482   0.55662   0.74093   -0.377094 

