
##########################################################################
#               Crystallographic Information Format file
#               Produced by PyCifRW module
#
#  This is a CIF file.  CIF has been adopted by the International
#  Union of Crystallography as the standard for data archiving and
#  transmission.
#
#  For information on this file format, follow the CIF links at
#  http://www.iucr.org
##########################################################################

data_image0

_cell_length_a                          43.8932
_cell_length_b                          43.8482
_cell_length_c                          8.12845
_cell_angle_alpha                       106.189
_cell_angle_beta                        106.028
_cell_angle_gamma                       120.062
_symmetry_space_group_name_H-M          'P 1'
_space_group_name_Hall                  'P 1'
loop_
  _atom_site_type_symbol
  _atom_site_label
  _atom_site_fract_x
  _atom_site_fract_y
  _atom_site_fract_z
  _atom_site_charge
         H         H         0.03406   0.56165   -0.00165  0.104034  
         C         C         0.01963   0.53316   0.00022   -0.048426           
         O         O         0.09933   0.57206   -0.00072  -0.331707           
         C         C         0.13365   0.57897   -0.00158  0.110607  
         C         C         0.16423   0.61229   -0.00399  -0.001954           
         C         C         0.16317   0.64372   0.99138   -0.120671           
         H         H         0.13761   0.64228   0.98951   0.123962  
         C         C         0.19402   0.67557   0.99081   -0.124921           
         H         H         0.19336   0.69983   0.98738   0.113965  
         C         C         0.22721   0.67697   0.99314   0.133914  
         C         C         0.25907   0.70936   0.99250   -0.096988           
         C         C         0.42304   0.61886   0.00698   0.037490  
         C         C         0.35690   0.58383   0.00767   -0.165544           
         H         H         0.43996   0.47157   0.01190   0.104670  
         C         C         0.46864   0.48605   0.01215   -0.056410           
         O         O         0.42982   0.52758   0.01352   -0.329287           
         C         C         0.42315   0.55522   0.01125   0.112137  
         C         C         0.38992   0.55302   0.01126   -0.005561           
         C         C         0.35835   0.52107   0.01556   -0.126670           
         H         H         0.35979   0.49730   0.02084   0.120640  
         C         C         0.32673   0.52051   0.01644   -0.122605           
         H         H         0.30282   0.49654   0.02443   0.118223  
         C         C         0.32555   0.55211   0.01216   0.130145  
         C         C         0.29332   0.55163   0.01600   -0.107061           
         C         C         0.38450   0.80217   -0.00300  0.029855  
         C         C         0.42011   0.77169   0.99086   -0.168522           
         H         H         0.52882   0.96548   0.98611   0.106995  
         C         C         0.51510   0.98042   0.99024   -0.070167           
         O         O         0.47551   0.90164   -0.00027  -0.332411           
         C         C         0.44813   0.86715   -0.00011  0.109350  
         C         C         0.45072   0.83617   -0.00324  -0.002115           
         C         C         0.48299   0.83682   0.99158   -0.119362           
         H         H         0.50660   0.86201   0.98803   0.123215  
         C         C         0.48393   0.80568   0.98712   -0.129766           
         H         H         0.50834   0.80566   0.98071   0.118227  
         C         C         0.45237   0.77262   0.98803   0.128688  
         C         C         0.45388   0.74137   0.99068   -0.105617           
         C         C         0.19890   0.58079   0.00733   0.030192  
         C         C         0.22825   0.64577   -0.00272  -0.164746           
         H         H         0.96790   0.43098   0.00081   0.104499  
         C         C         0.98227   0.45949   -0.00076  -0.056836           
         O         O         0.90061   0.42049   0.99205   -0.333644           
         C         C         0.86668   0.41480   0.99299   0.109367  
         C         C         0.83519   0.38190   0.99397   0.002593  
         C         C         0.83483   0.34966   -0.00319  -0.119452           
         H         H         0.85993   0.35013   -0.00139  0.119084  
         C         C         0.80312   0.31816   0.99527   -0.124926           
         H         H         0.80266   0.29325   -0.00272  0.113791  
         C         C         0.77050   0.31798   0.99257   0.131393  
         C         C         0.73796   0.28597   0.99176   -0.094924           
         C         C         0.58426   0.38678   0.00272   0.038423  
         C         C         0.64972   0.42024   0.99536   -0.164181           
         H         H         0.57159   0.53813   0.01963   0.104201  
         C         C         0.54281   0.52356   0.01831   -0.060137           
         O         O         0.58041   0.48036   0.00789   -0.329148           
         C         C         0.58604   0.45181   0.00465   0.107012  
         C         C         0.61863   0.45299   0.00118   -0.006715           
         C         C         0.65076   0.48479   -0.00145  -0.125269           
         H         H         0.65015   0.50919   -0.00316  0.120350  
         C         C         0.68178   0.48443   0.99467   -0.125589           
         H         H         0.70621   0.50849   0.98945   0.115710  
         C         C         0.68147   0.45169   0.99150   0.128589  
         C         C         0.71266   0.45066   0.98254   -0.102084           
         C         C         0.61304   0.19628   -0.00350  0.028413  
         C         C         0.58010   0.22931   0.01064   -0.167541           
         H         H         0.46553   0.03300   0.00189   0.107630  
         C         C         0.47921   0.01804   -0.00211  -0.070046           
         O         O         0.52092   0.09849   -0.00140  -0.331157           
         C         C         0.54876   0.13272   -0.00224  0.108989  
         C         C         0.54756   0.16464   0.00412   -0.001980           
         C         C         0.51635   0.16575   0.01293   -0.117486           
         H         H         0.49232   0.14112   0.01746   0.120198  
         C         C         0.51688   0.19778   0.01934   -0.126634           
         H         H         0.49325   0.19901   0.02862   0.117478  
         C         C         0.54892   0.23016   0.01724   0.125788  
         C         C         0.54915   0.26247   0.01679   -0.104868           
         C         C         0.80283   0.41572   0.98557   0.031476  
         C         C         0.77091   0.35006   0.99059   -0.162595           
         H         H         0.56207   0.03134   0.98899   0.106936  
         C         C         0.53382   0.01735   0.99280   -0.054681           
         O         O         0.57287   0.09774   0.99198   -0.332659           
         C         C         0.57942   0.13210   0.99275   0.111831  
         C         C         0.61244   0.16289   0.98992   -0.003561           
         C         C         0.64367   0.16181   0.98237   -0.115508           
         H         H         0.64212   0.13599   0.97699   0.122530  
         C         C         0.67537   0.19295   0.98260   -0.130736           
         H         H         0.69948   0.19236   0.97612   0.113910  
         C         C         0.67688   0.22645   0.98942   0.139053  
         C         C         0.70943   0.25832   0.98970   -0.101212           
         C         C         0.61770   0.41971   0.00033   0.036667  
         C         C         0.58217   0.35378   0.00358   -0.165607           
         H         H         0.47224   0.43881   0.01016   0.105488  
         C         C         0.48682   0.46759   0.01111   -0.061604           
         O         O         0.52727   0.42790   0.00755   -0.328714           
         C         C         0.55463   0.42085   0.00528   0.112031  
         C         C         0.55200   0.38741   0.00576   -0.007200           
         C         C         0.51979   0.35602   0.00985   -0.123228           
         H         H         0.49615   0.35774   0.01451   0.120355  
         C         C         0.51873   0.32411   0.01086   -0.126447           
         H         H         0.49449   0.30033   0.01830   0.117797  
         C         C         0.55024   0.32264   0.00804   0.129755  
         C         C         0.54959   0.29034   0.01225   -0.101785           
         C         C         0.80260   0.38252   0.99072   0.024665  
         C         C         0.77137   0.41729   0.98081   -0.169433           
         H         H         0.96793   0.52868   0.99007   0.107828  
         C         C         0.98244   0.51454   0.99478   -0.072002           
         O         O         0.90177   0.47378   0.99203   -0.331898           
         C         C         0.86719   0.44623   0.99129   0.111906  
         C         C         0.83585   0.44838   0.98615   0.000277  
         C         C         0.83569   0.48010   0.97781   -0.119400           
         H         H         0.86058   0.50380   0.97310   0.120812  
         C         C         0.80412   0.48044   0.97111   -0.125702           
         H         H         0.80364   0.50445   0.96143   0.118484  
         C         C         0.77140   0.44893   0.97399   0.127785  
         C         C         0.73970   0.44978   0.97523   -0.104873           
         C         C         0.58062   0.19720   0.00443   0.029451  
         C         C         0.64582   0.22748   -0.00396  -0.169386           
         H         H         0.43205   0.96693   -0.00264  0.105817  
         C         C         0.46042   0.98103   0.99471   -0.055509           
         O         O         0.42174   0.89993   0.99512   -0.332151           
         C         C         0.41642   0.86628   -0.00130  0.110699  
         C         C         0.38354   0.83453   -0.00176  -0.001014           
         C         C         0.35086   0.83366   -0.00314  -0.117267           
         H         H         0.35100   0.85847   0.99576   0.119870  
         C         C         0.31941   0.80182   0.99444   -0.125388           
         H         H         0.29413   0.80091   0.99302   0.114548  
         C         C         0.31962   0.76953   0.99517   0.137022  
         C         C         0.28741   0.73720   0.99452   -0.099416           
         C         C         0.38975   0.58551   0.00784   0.036135  
         C         C         0.42425   0.65135   0.00464   -0.164884           
         H         H         0.53918   0.57081   0.02055   0.103928  
         C         C         0.52460   0.54198   0.01906   -0.059200           
         O         O         0.48220   0.58011   0.01038   -0.331873           
         C         C         0.45416   0.58633   0.00945   0.109847  
         C         C         0.45606   0.61936   0.00775   -0.010236           
         C         C         0.48839   0.65161   0.00810   -0.125472           
         H         H         0.51270   0.65076   0.00731   0.121798  
         C         C         0.48876   0.68319   0.00726   -0.130157           
         H         H         0.51322   0.70783   0.00485   0.115655  
         C         C         0.45621   0.68322   0.00398   0.129328  
         C         C         0.45551   0.71469   -0.00236  -0.103062           
         C         C         0.19752   0.61302   -0.00017  0.027525  
         C         C         0.23130   0.58086   0.01418   -0.171691           
         H         H         0.03423   0.46422   0.01118   0.106907  
         C         C         0.01957   0.47819   0.00537   -0.069409           
         O         O         0.10039   0.51995   0.00086   -0.331939           
         C         C         0.13450   0.54824   0.00067   0.110702  
         C         C         0.16659   0.54742   0.00660   -0.002342           
         C         C         0.16817   0.51638   0.01492   -0.114579           
         H         H         0.14370   0.49201   0.01873   0.120002  
         C         C         0.20043   0.51742   0.02145   -0.130966           
         H         H         0.20193   0.49388   0.03023   0.118500  
         C         C         0.23263   0.54988   0.02026   0.125929  
         C         C         0.26525   0.55073   0.02031   -0.098996           
         C         C         0.41806   0.80286   0.99459   0.029915  
         C         C         0.35202   0.77031   -0.00370  -0.170004           
         C         C         0.03881   0.51524   0.00479   -0.216186           
         B         B         0.07898   0.53538   0.00235   0.571805  
         C         C         0.48711   0.52350   0.01525   -0.226265           
         B         B         0.46669   0.54344   0.01308   0.580167  
         C         C         0.47819   0.96173   0.99192   -0.212206           
         B         B         0.45862   0.92171   0.99558   0.572523  
         C         C         0.96300   0.47731   0.99381   -0.210724           
         B         B         0.92238   0.45740   0.99225   0.575351  
         C         C         0.52416   0.48591   0.01341   -0.222343           
         B         B         0.54369   0.46508   0.00954   0.576255  
         C         C         0.51619   0.03679   -0.00293  -0.213238           
         B         B         0.53640   0.07708   -0.00394  0.570759  
         H         H         0.40008   0.65254   0.00341   0.117601  
         H         H         0.35137   0.74528   -0.00279  0.117881  
         H         H         0.25611   0.60505   0.01157   0.116376  
         H         H         0.60560   0.35159   0.00053   0.117544  
         H         H         0.64773   0.25338   0.00044   0.118062  
         H         H         0.74623   0.39395   0.98554   0.116281  
         H         H         0.65053   0.39582   0.99390   0.117444  
         H         H         0.74559   0.34906   0.98887   0.117700  
         H         H         0.60390   0.25423   0.00685   0.114987  
         H         H         0.35516   0.60754   0.00496   0.119213  
         H         H         0.25386   0.64760   -0.00237  0.115903  
         H         H         0.39666   0.74612   0.99298   0.116434  
         H         H         0.03206   0.56692   0.49555   0.105219  
         C         C         0.01760   0.53850   0.49797   -0.058562           
         O         O         0.09826   0.57660   0.49946   -0.332201           
         C         C         0.13194   0.58199   0.49669   0.109190  
         C         C         0.16319   0.61466   0.49393   -0.003004           
         C         C         0.16319   0.64665   0.48982   -0.113397           
         H         H         0.13798   0.64596   0.48806   0.120376  
         C         C         0.19470   0.67805   0.49033   -0.133088           
         H         H         0.19509   0.70287   0.48777   0.116890  
         C         C         0.22739   0.67838   0.49309   0.135092  
         C         C         0.25951   0.71065   0.49316   -0.097204           
         C         C         0.41546   0.61327   0.50676   0.034866  
         C         C         0.34934   0.57785   0.50618   -0.168116           
         H         H         0.43262   0.46575   0.50283   0.104725  
         C         C         0.46179   0.48081   0.50794   -0.059386           
         O         O         0.42321   0.52257   0.51600   -0.329969           
         C         C         0.41618   0.54995   0.51295   0.107986  
         C         C         0.38266   0.54733   0.51112   -0.007833           
         C         C         0.35057   0.51479   0.51033   -0.123005           
         H         H         0.35183   0.49077   0.51280   0.121110  
         C         C         0.31853   0.51378   0.50816   -0.131061           
         H         H         0.29404   0.48919   0.51062   0.115949  
         C         C         0.31773   0.54580   0.50771   0.132458  
         C         C         0.28571   0.54579   0.51087   -0.103704           
         C         C         0.38415   0.80265   0.49708   0.027811  
         C         C         0.41766   0.77019   0.49019   -0.170242           
         H         H         0.53165   0.96566   0.48428   0.106742  
         C         C         0.51785   0.98050   0.48930   -0.069623           
         O         O         0.47674   0.90070   0.49868   -0.335030           
         C         C         0.44873   0.86641   0.49863   0.113216  
         C         C         0.45022   0.83475   0.49542   0.000096  
         C         C         0.48172   0.83381   0.49023   -0.117696           
         H         H         0.50604   0.85846   0.48716   0.119818  
         C         C         0.48125   0.80188   0.48565   -0.126781           
         H         H         0.50519   0.80093   0.47953   0.117004  
         C         C         0.44900   0.76940   0.48627   0.126206  
         C         C         0.44864   0.73706   0.48777   -0.103590           
         C         C         0.19579   0.58111   0.50464   0.028857  
         C         C         0.22733   0.64654   0.49638   -0.163156           
         H         H         0.96593   0.43666   0.50247   0.106731  
         C         C         0.98030   0.46496   0.49885   -0.051116           
         O         O         0.89976   0.42582   0.49242   -0.330466           
         C         C         0.86550   0.41932   0.49195   0.111230  
         C         C         0.83449   0.38607   0.49240   -0.006048           
         C         C         0.83505   0.35426   0.49485   -0.113923           
         H         H         0.86049   0.35547   0.49654   0.118875  
         C         C         0.80385   0.32239   0.49357   -0.129222           
         H         H         0.80404   0.29780   0.49546   0.117130  
         C         C         0.77084   0.32138   0.49155   0.136908  
         C         C         0.73896   0.28882   0.49140   -0.102830           
         C         C         0.58104   0.38489   0.50210   0.037008  
         C         C         0.64677   0.42008   0.49833   -0.161481           
         H         H         0.56610   0.53473   0.52934   0.106163  
         C         C         0.53696   0.51970   0.52449   -0.061220           
         O         O         0.57477   0.47716   0.50953   -0.329340           
         C         C         0.58111   0.44909   0.50600   0.111187  
         C         C         0.61420   0.45133   0.50317   -0.007019           
         C         C         0.64590   0.48370   0.50125   -0.127520           
         H         H         0.64472   0.50787   0.50094   0.121912  
         C         C         0.67733   0.48421   0.49708   -0.124057           
         H         H         0.70126   0.50844   0.49025   0.116390  
         C         C         0.67810   0.45209   0.49530   0.128459  
         C         C         0.70980   0.45203   0.48746   -0.103837           
         C         C         0.61514   0.19687   0.49548   0.029506  
         C         C         0.58144   0.22917   0.50872   -0.170746           
         H         H         0.46843   0.03319   0.50297   0.107123  
         C         C         0.48220   0.01832   0.49820   -0.067780           
         O         O         0.52350   0.09860   0.49679   -0.331000           
         C         C         0.55121   0.13287   0.49607   0.114358  
         C         C         0.54959   0.16455   0.50215   -0.002423           
         C         C         0.51817   0.16517   0.51132   -0.115970           
         H         H         0.49427   0.14026   0.51517   0.120767  
         C         C         0.51837   0.19710   0.51891   -0.126987           
         H         H         0.49479   0.19820   0.52998   0.117961  
         C         C         0.55008   0.22959   0.51579   0.128095  
         C         C         0.54956   0.26145   0.51444   -0.103190           
         C         C         0.80092   0.41864   0.48416   0.026869  
         C         C         0.77030   0.35297   0.48939   -0.168010           
         H         H         0.56511   0.03164   0.49080   0.104974  
         C         C         0.53672   0.01762   0.49331   -0.055653           
         O         O         0.57577   0.09835   0.49151   -0.329936           
         C         C         0.58213   0.13264   0.49201   0.105153  
         C         C         0.61512   0.16382   0.49014   0.000894  
         C         C         0.64684   0.16352   0.48405   -0.114805           
         H         H         0.64590   0.13807   0.48025   0.119358  
         C         C         0.67830   0.19494   0.48414   -0.129324           
         H         H         0.70264   0.19475   0.47846   0.113542  
         C         C         0.67915   0.22804   0.48942   0.136603  
         C         C         0.71123   0.26039   0.48951   -0.094039           
         C         C         0.61417   0.41848   0.50166   0.036144  
         C         C         0.58000   0.35233   0.50224   -0.167192           
         H         H         0.46535   0.43338   0.50218   0.105073  
         C         C         0.48019   0.46258   0.50737   -0.059043           
         O         O         0.52222   0.42404   0.50875   -0.329356           
         C         C         0.55000   0.41760   0.50560   0.109045  
         C         C         0.54813   0.38435   0.50395   -0.006421           
         C         C         0.51619   0.35206   0.50512   -0.124844           
         H         H         0.49201   0.35285   0.50880   0.121263  
         C         C         0.51610   0.32057   0.50507   -0.127587           
         H         H         0.49215   0.29621   0.51115   0.117100  
         C         C         0.54837   0.32040   0.50419   0.129442  
         C         C         0.54889   0.28870   0.50869   -0.102465           
         C         C         0.80147   0.38582   0.48889   0.028832  
         C         C         0.76915   0.41955   0.48023   -0.166940           
         H         H         0.96582   0.53402   0.48741   0.107624  
         C         C         0.98040   0.51997   0.49253   -0.066815           
         O         O         0.89968   0.47852   0.49210   -0.330801           
         C         C         0.86526   0.45038   0.49051   0.110227  
         C         C         0.83359   0.45180   0.48556   -0.000779           
         C         C         0.83300   0.48345   0.47969   -0.119025           
         H         H         0.85783   0.50760   0.47672   0.120427  
         C         C         0.80125   0.48325   0.47476   -0.126550           
         H         H         0.80030   0.50719   0.46782   0.117795  
         C         C         0.76881   0.45116   0.47642   0.124860  
         C         C         0.73701   0.45155   0.47982   -0.103682           
         C         C         0.58244   0.19733   0.50272   0.029628  
         C         C         0.64762   0.22829   0.49464   -0.167769           
         H         H         0.43498   0.96720   0.49700   0.107001  
         C         C         0.46334   0.98122   0.49423   -0.057929           
         O         O         0.42371   0.90048   0.49369   -0.331629           
         C         C         0.41747   0.86653   0.49750   0.109821  
         C         C         0.38416   0.83547   0.49809   -0.002439           
         C         C         0.35204   0.83561   0.49825   -0.120036           
         H         H         0.35300   0.86088   0.49855   0.123003  
         C         C         0.32018   0.80426   0.49661   -0.126277           
         H         H         0.29540   0.80419   0.49694   0.114570  
         C         C         0.31946   0.77147   0.49636   0.136182  
         C         C         0.28715   0.73918   0.49527   -0.099873           
         C         C         0.38237   0.57979   0.50796   0.037269  
         C         C         0.41652   0.64572   0.50404   -0.161742           
         H         H         0.53337   0.56719   0.53081   0.104372  
         C         C         0.51857   0.53795   0.52528   -0.056996           
         O         O         0.47538   0.57534   0.51321   -0.329749           
         C         C         0.44702   0.58112   0.51071   0.109555  
         C         C         0.44838   0.61373   0.50625   -0.001176           
         C         C         0.48009   0.64542   0.50139   -0.125828           
         H         H         0.50421   0.64443   0.49864   0.119773  
         C         C         0.48005   0.67664   0.49766   -0.122861           
         H         H         0.50400   0.70077   0.49052   0.116467  
         C         C         0.44802   0.67723   0.49911   0.127393  
         C         C         0.44800   0.70914   0.49318   -0.101723           
         C         C         0.19585   0.61414   0.49767   0.026913  
         C         C         0.22732   0.57956   0.51097   -0.167510           
         H         H         0.03195   0.46933   0.50857   0.108224  
         C         C         0.01739   0.48342   0.50363   -0.072885           
         O         O         0.09718   0.52337   0.50087   -0.332506           
         C         C         0.13152   0.55066   0.49936   0.112500  
         C         C         0.16277   0.54845   0.50411   -0.001929           
         C         C         0.16269   0.51659   0.51193   -0.118109           
         H         H         0.13765   0.49289   0.51577   0.120990  
         C         C         0.19410   0.51605   0.51791   -0.126133           
         H         H         0.19438   0.49184   0.52566   0.118910  
         C         C         0.22696   0.54769   0.51661   0.127748  
         C         C         0.25858   0.54670   0.51596   -0.105108           
         C         C         0.41702   0.80212   0.49396   0.029240  
         C         C         0.35137   0.77138   0.49709   -0.165972           
         C         C         0.03659   0.52043   0.50269   -0.210358           
         B         B         0.07678   0.53994   0.50134   0.574188  
         C         C         0.48059   0.51879   0.51635   -0.225075           
         B         B         0.46013   0.53869   0.51573   0.579672  
         C         C         0.48088   0.96166   0.49052   -0.211538           
         B         B         0.46068   0.92152   0.49399   0.572321  
         C         C         0.96116   0.48289   0.49272   -0.217544           
         B         B         0.92076   0.46272   0.49193   0.568877  
         C         C         0.51804   0.48161   0.51483   -0.224909           
         B         B         0.53806   0.46125   0.51144   0.576558  
         C         C         0.51922   0.03719   0.49750   -0.212132           
         B         B         0.53928   0.07744   0.49542   0.572594  
         H         H         0.39260   0.64713   0.50588   0.118878  
         H         H         0.35010   0.74609   0.49869   0.116738  
         H         H         0.25274   0.60309   0.50859   0.116337  
         H         H         0.60421   0.35132   0.50198   0.117288  
         H         H         0.64890   0.25380   0.49732   0.117079  
         H         H         0.74419   0.39578   0.48403   0.116115  
         H         H         0.64836   0.39610   0.49699   0.116958  
         H         H         0.74478   0.35141   0.48859   0.117467  
         H         H         0.60501   0.25420   0.50452   0.116508  
         H         H         0.34744   0.60142   0.50234   0.117546  
         H         H         0.25260   0.64751   0.49771   0.116173  
         H         H         0.39373   0.74532   0.49356   0.116944 

