
##########################################################################
#               Crystallographic Information Format file
#               Produced by PyCifRW module
#
#  This is a CIF file.  CIF has been adopted by the International
#  Union of Crystallography as the standard for data archiving and
#  transmission.
#
#  For information on this file format, follow the CIF links at
#  http://www.iucr.org
##########################################################################

data_image0

_cell_length_a                          35.3121
_cell_length_b                          35.3272
_cell_length_c                          8.07886
_cell_angle_alpha                       106.372
_cell_angle_beta                        105.517
_cell_angle_gamma                       120.075
_symmetry_space_group_name_H-M          'P 1'
_space_group_name_Hall                  'P 1'
loop_
  _atom_site_type_symbol
  _atom_site_label
  _atom_site_fract_x
  _atom_site_fract_y
  _atom_site_fract_z
  _atom_site_charge
         H         H         0.04463   0.58270   0.01289   0.106601  
         C         C         0.02664   0.54723   0.01392   -0.050813           
         O         O         0.12649   0.59584   0.01574   -0.337334           
         C         C         0.16812   0.60330   0.00731   0.170697  
         C         C         0.20611   0.64315   0.00529   -0.221473           
         H         H         0.20597   0.67390   0.00669   0.150094  
         C         C         0.24566   0.64261   0.00146   0.092539  
         C         C         0.28534   0.68245   -0.00067  -0.083216           
         H         H         0.41939   0.45857   0.98010   0.107133  
         C         C         0.45537   0.47693   0.98306   -0.058308           
         O         O         0.40750   0.52886   0.99021   -0.337736           
         C         C         0.39909   0.56317   0.99056   0.172714  
         C         C         0.35925   0.56154   0.99195   -0.227708           
         H         H         0.32879   0.53098   0.99415   0.148287  
         C         C         0.35966   0.60189   0.99312   0.093908  
         C         C         0.31973   0.60183   0.99424   -0.084475           
         H         H         0.54513   0.96443   0.02684   0.108897  
         C         C         0.52583   0.98060   0.01610   -0.070263           
         O         O         0.47405   0.87975   0.00754   -0.338471           
         C         C         0.43945   0.83644   0.00373   0.172580  
         C         C         0.44095   0.79793   0.00062   -0.215483           
         H         H         0.47153   0.79790   -0.00181  0.150271  
         C         C         0.40040   0.75745   -0.00283  0.092241  
         C         C         0.40052   0.71752   -0.00347  -0.077507           
         H         H         0.96192   0.41973   0.01016   0.108076  
         C         C         0.98005   0.45529   0.00974   -0.056463           
         O         O         0.87904   0.40593   -0.00011  -0.338317           
         C         C         0.83677   0.39802   0.00245   0.171727  
         C         C         0.79802   0.35780   0.00006   -0.223152           
         H         H         0.79778   0.32685   -0.00138  0.149117  
         C         C         0.75825   0.35836   0.00010   0.094632  
         C         C         0.71798   0.31847   -0.00055  -0.086562           
         H         H         0.58433   0.54289   -0.00146  0.106842  
         C         C         0.54835   0.52455   0.99556   -0.058385           
         O         O         0.59615   0.47225   0.99198   -0.334457           
         C         C         0.60422   0.43778   0.99340   0.168591  
         C         C         0.64430   0.43941   0.99560   -0.227290           
         H         H         0.67506   0.47004   0.99495   0.148864  
         C         C         0.64366   0.39908   -0.00374  0.088461  
         C         C         0.68375   0.39897   -0.00143  -0.081678           
         H         H         0.45700   0.03830   0.97795   0.107879  
         C         C         0.47626   0.02209   0.98877   -0.065569           
         O         O         0.52890   0.12340   -0.00189  -0.338232           
         C         C         0.56332   0.16603   -0.00185  0.176816  
         C         C         0.56173   0.20423   -0.00285  -0.215334           
         H         H         0.53115   0.20444   -0.00210  0.149912  
         C         C         0.60226   0.24416   -0.00150  0.093875  
         C         C         0.60220   0.28387   -0.00408  -0.078591           
         H         H         0.58551   0.04592   0.02969   0.106400  
         C         C         0.54858   0.02638   0.01838   -0.052674           
         O         O         0.59559   0.12448   0.00754   -0.338996           
         C         C         0.60340   0.16643   0.00215   0.169317  
         C         C         0.64345   0.20462   0.00202   -0.220587           
         H         H         0.67431   0.20465   0.00380   0.150555  
         C         C         0.64302   0.24427   -0.00024  0.091887  
         C         C         0.68304   0.28411   -0.00081  -0.082688           
         H         H         0.46004   0.41835   0.98052   0.106914  
         C         C         0.47827   0.45434   0.98357   -0.058859           
         O         O         0.53006   0.40683   0.99164   -0.335181           
         C         C         0.56422   0.39821   0.99209   0.170997  
         C         C         0.56219   0.35813   0.99241   -0.227101           
         H         H         0.53153   0.32782   0.99470   0.149603  
         C         C         0.60241   0.35829   0.99346   0.091809  
         C         C         0.60214   0.31828   0.99411   -0.084084           
         H         H         0.96237   0.54156   0.00414   0.108760  
         C         C         0.98041   0.52401   0.00831   -0.069759           
         O         O         0.88048   0.47277   0.00890   -0.339202           
         C         C         0.83744   0.43822   0.00650   0.173635  
         C         C         0.79919   0.43996   0.00564   -0.215940           
         H         H         0.79952   0.47084   0.00574   0.150558  
         C         C         0.75864   0.39928   0.00119   0.090236  
         C         C         0.71854   0.39916   0.00008   -0.078127           
         H         H         0.41654   0.95673   0.97482   0.108114  
         C         C         0.45349   0.97628   0.98636   -0.055876           
         O         O         0.40660   0.87751   0.99524   -0.338232           
         C         C         0.39906   0.83551   -0.00086  0.166779  
         C         C         0.35898   0.79680   -0.00254  -0.223664           
         H         H         0.32795   0.79644   0.99582   0.149966  
         C         C         0.35959   0.75708   -0.00236  0.098485  
         C         C         0.31982   0.71701   -0.00153  -0.087697           
         H         H         0.54355   0.58300   -0.00298  0.104593  
         C         C         0.52540   0.54711   0.99469   -0.056410           
         O         O         0.47286   0.59442   0.98846   -0.338500           
         C         C         0.43865   0.60284   0.99054   0.172590  
         C         C         0.44045   0.64295   0.99218   -0.230872           
         H         H         0.47090   0.67337   0.98952   0.148803  
         C         C         0.40045   0.64280   0.99447   0.094076  
         C         C         0.40053   0.68291   -0.00391  -0.087547           
         H         H         0.04426   0.46092   0.01913   0.108545  
         C         C         0.02629   0.47853   0.01539   -0.066138           
         O         O         0.12523   0.52894   0.00430   -0.338923           
         C         C         0.16766   0.56315   0.00240   0.177384  
         C         C         0.20571   0.56140   -0.00045  -0.217611           
         H         H         0.20583   0.53073   -0.00032  0.150088  
         C         C         0.24557   0.60183   -0.00001  0.094646  
         C         C         0.28519   0.60167   -0.00376  -0.078467           
         C         C         0.05027   0.52480   0.01678   -0.215016           
         B         B         0.10014   0.54964   0.01351   0.572016  
         C         C         0.47850   0.52369   0.98844   -0.226328           
         B         B         0.45321   0.54857   0.98854   0.588015  
         C         C         0.47793   0.95480   0.00049   -0.214557           
         B         B         0.45320   0.90470   0.00125   0.579184  
         C         C         0.95633   0.47764   0.00592   -0.214657           
         B         B         0.90591   0.45238   0.00449   0.576369  
         C         C         0.52515   0.47775   0.98987   -0.225640           
         B         B         0.55017   0.45265   0.99091   0.584513  
         C         C         0.52420   0.04790   0.00466   -0.213422           
         B         B         0.54925   0.09799   0.00401   0.574964  
         H         H         0.04023   0.58132   0.50921   0.107381  
         C         C         0.02258   0.54606   0.51182   -0.052224           
         O         O         0.12340   0.59503   0.51766   -0.338206           
         C         C         0.16476   0.60191   0.50858   0.169047  
         C         C         0.20317   0.64168   0.50796   -0.222578           
         H         H         0.20367   0.67289   0.51177   0.150079  
         C         C         0.24227   0.64044   0.50287   0.097761  
         C         C         0.28224   0.68007   0.50112   -0.086926           
         H         H         0.41487   0.45545   0.48370   0.105501  
         C         C         0.45072   0.47371   0.48562   -0.057910           
         O         O         0.40324   0.52604   0.49326   -0.335243           
         C         C         0.39508   0.56052   0.49381   0.168718  
         C         C         0.35550   0.55918   0.49687   -0.226429           
         H         H         0.32543   0.52900   0.50194   0.147834  
         C         C         0.35582   0.59934   0.49618   0.091526  
         C         C         0.31606   0.59954   0.49772   -0.084239           
         H         H         0.54208   0.96100   0.52502   0.108087  
         C         C         0.52328   0.97769   0.51511   -0.067512           
         O         O         0.47019   0.87626   0.50171   -0.337006           
         C         C         0.43580   0.83337   0.50051   0.174752  
         C         C         0.43713   0.79472   0.49699   -0.216939           
         H         H         0.46742   0.79439   0.49246   0.150122  
         C         C         0.39679   0.75459   0.49577   0.094778  
         C         C         0.39664   0.71451   0.49478   -0.077128           
         H         H         0.95962   0.41971   0.51632   0.105656  
         C         C         0.97708   0.45486   0.51301   -0.051291           
         O         O         0.87577   0.40512   0.50323   -0.339127           
         C         C         0.83333   0.39716   0.50440   0.167856  
         C         C         0.79460   0.35696   0.50203   -0.223233           
         H         H         0.79458   0.32620   0.50157   0.150464  
         C         C         0.75461   0.35728   0.50033   0.094361  
         C         C         0.71433   0.31737   0.49959   -0.083252           
         H         H         0.57921   0.53943   0.49711   0.105384  
         C         C         0.54336   0.52120   0.49518   -0.058301           
         O         O         0.59162   0.46968   0.49159   -0.333380           
         C         C         0.60009   0.43552   0.49352   0.170278  
         C         C         0.63996   0.43706   0.49318   -0.228718           
         H         H         0.67039   0.46747   0.49019   0.149807  
         C         C         0.63963   0.39694   0.49486   0.091481  
         C         C         0.67979   0.39715   0.49667   -0.083947           
         H         H         0.45596   0.03678   0.47735   0.107789  
         C         C         0.47476   0.02013   0.48811   -0.065676           
         O         O         0.52625   0.12022   0.49388   -0.337382           
         C         C         0.56054   0.16334   0.49580   0.169863  
         C         C         0.55846   0.20137   0.49545   -0.212928           
         H         H         0.52749   0.20089   0.49567   0.150273  
         C         C         0.59886   0.24189   0.49833   0.090047  
         C         C         0.59853   0.28155   0.49597   -0.078290           
         H         H         0.58352   0.04256   0.52915   0.106298  
         C         C         0.54659   0.02355   0.51780   -0.052474           
         O         O         0.59401   0.12288   0.50773   -0.337844           
         C         C         0.60114   0.16457   0.50164   0.168128  
         C         C         0.64104   0.20325   0.50249   -0.220358           
         H         H         0.67222   0.20379   0.50499   0.149701  
         C         C         0.64000   0.24261   0.50019   0.094603  
         C         C         0.67973   0.28274   0.49968   -0.085917           
         H         H         0.45595   0.41563   0.48632   0.105837  
         C         C         0.47382   0.45134   0.48719   -0.057321           
         O         O         0.52647   0.40464   0.49649   -0.334121           
         C         C         0.56064   0.39612   0.49512   0.170490  
         C         C         0.55876   0.35607   0.49477   -0.228614           
         H         H         0.52812   0.32567   0.49667   0.148928  
         C         C         0.59883   0.35617   0.49403   0.091126  
         C         C         0.59876   0.31616   0.49438   -0.083684           
         H         H         0.95818   0.54000   0.50313   0.108726  
         C         C         0.97652   0.52280   0.50771   -0.072483           
         O         O         0.87697   0.47166   0.50912   -0.338808           
         C         C         0.83388   0.43721   0.50666   0.177198  
         C         C         0.79540   0.43873   0.50404   -0.217759           
         H         H         0.79532   0.46929   0.50205   0.149808  
         C         C         0.75497   0.39808   0.50030   0.093342  
         C         C         0.71482   0.39782   0.49870   -0.076934           
         H         H         0.41442   0.95511   0.47331   0.106925  
         C         C         0.45145   0.97429   0.48557   -0.054314           
         O         O         0.40399   0.87552   0.49832   -0.338051           
         C         C         0.39604   0.83316   0.50025   0.167138  
         C         C         0.35613   0.79472   0.50039   -0.220166           
         H         H         0.32557   0.79487   0.50201   0.149470  
         C         C         0.35638   0.75470   0.49888   0.091743  
         C         C         0.31671   0.71469   0.50042   -0.083201           
         H         H         0.53819   0.57935   0.49495   0.105606  
         C         C         0.52028   0.54359   0.49374   -0.056731           
         O         O         0.46825   0.59092   0.48729   -0.336273           
         C         C         0.43439   0.59975   0.49099   0.168799  
         C         C         0.43616   0.63975   0.49133   -0.227899           
         H         H         0.46639   0.66996   0.48697   0.149617  
         C         C         0.39630   0.63979   0.49456   0.093055  
         C         C         0.39635   0.67978   0.49467   -0.083179           
         H         H         0.04141   0.46084   0.52126   0.108314  
         C         C         0.02306   0.47805   0.51661   -0.067611           
         O         O         0.12061   0.52700   0.50057   -0.340283           
         C         C         0.16348   0.56118   0.50093   0.171836  
         C         C         0.20127   0.55893   0.49852   -0.216698           
         H         H         0.20084   0.52796   0.49815   0.151198  
         C         C         0.24161   0.59932   0.50075   0.092078  
         C         C         0.28133   0.59913   0.49869   -0.078435           
         C         C         0.04650   0.52395   0.51547   -0.216032           
         B         B         0.09626   0.54846   0.51185   0.577523  
         C         C         0.47358   0.52020   0.48879   -0.225669           
         B         B         0.44858   0.54528   0.48915   0.587048  
         C         C         0.47531   0.95223   0.49924   -0.212755           
         B         B         0.45006   0.90198   0.49954   0.574810  
         C         C         0.95297   0.47675   0.50798   -0.213838           
         B         B         0.90254   0.45140   0.50649   0.577774  
         C         C         0.52051   0.47472   0.49183   -0.224783           
         B         B         0.54596   0.45010   0.49341   0.582740  
         C         C         0.52267   0.04554   0.50369   -0.216226           
         B         B         0.54746   0.09559   0.50202   0.576637 

