
##########################################################################
#               Crystallographic Information Format file
#               Produced by PyCifRW module
#
#  This is a CIF file.  CIF has been adopted by the International
#  Union of Crystallography as the standard for data archiving and
#  transmission.
#
#  For information on this file format, follow the CIF links at
#  http://www.iucr.org
##########################################################################

data_image0

_cell_length_a                          40.4503
_cell_length_b                          40.5433
_cell_length_c                          8.0633
_cell_angle_alpha                       111.514
_cell_angle_beta                        98.5755
_cell_angle_gamma                       120.317
_symmetry_space_group_name_H-M          'P 1'
_space_group_name_Hall                  'P 1'
loop_
  _atom_site_type_symbol
  _atom_site_label
  _atom_site_fract_x
  _atom_site_fract_y
  _atom_site_fract_z
  _atom_site_charge
         C         C         0.85470   0.44351   0.24500   0.176062  
         C         C         0.55524   0.41172   0.25793   0.175000  
         C         C         0.58576   0.14306   0.24295   0.173144  
         C         C         0.14479   0.55379   0.25804   0.174365  
         C         C         0.44530   0.58878   0.23539   0.172053  
         C         C         0.40995   0.85488   0.25227   0.173635  
         C         C         0.44484   0.85548   0.24866   0.175472  
         C         C         0.41094   0.55458   0.24040   0.171695  
         C         C         0.14520   0.58887   0.26141   0.171112  
         C         C         0.55147   0.14350   0.24890   0.177192  
         C         C         0.58968   0.44598   0.25369   0.170523  
         C         C         0.85405   0.40850   0.24436   0.170745  
         C         C         0.82131   0.44498   0.24138   -0.215704           
         C         C         0.55362   0.37692   0.25770   -0.226601           
         C         C         0.62054   0.17629   0.24119   -0.219723           
         C         C         0.17824   0.55252   0.25930   -0.218531           
         C         C         0.44699   0.62369   0.23634   -0.224949           
         C         C         0.37552   0.82124   0.25385   -0.217694           
         C         C         0.44655   0.82197   0.24247   -0.213688           
         C         C         0.37654   0.55355   0.24617   -0.222425           
         C         C         0.17866   0.62386   0.26170   -0.223457           
         C         C         0.55057   0.17749   0.25570   -0.215178           
         C         C         0.62412   0.44710   0.24859   -0.223921           
         C         C         0.82026   0.37364   0.24311   -0.223913           
         C         C         0.75106   0.40970   0.23690   -0.067341           
         C         C         0.58808   0.34184   0.25165   -0.066797           
         C         C         0.65546   0.24641   0.24554   -0.064586           
         C         C         0.24850   0.58858   0.26264   -0.066445           
         C         C         0.41241   0.65868   0.24347   -0.066405           
         C         C         0.34205   0.75157   0.25275   -0.062125           
         C         C         0.41204   0.75202   0.24014   -0.065032           
         C         C         0.34262   0.58925   0.25335   -0.068133           
         C         C         0.24827   0.65819   0.25976   -0.068216           
         C         C         0.58620   0.24747   0.25729   -0.064915           
         C         C         0.65801   0.41134   0.24285   -0.066172           
         C         C         0.75030   0.33960   0.24205   -0.064897           
         C         C         0.72077   0.41000   0.23645   -0.015921           
         C         C         0.58738   0.31124   0.25304   -0.020401           
         C         C         0.68607   0.27662   0.24435   -0.017451           
         C         C         0.27928   0.58927   0.26257   -0.016031           
         C         C         0.41242   0.68894   0.24247   -0.019343           
         C         C         0.31180   0.72132   0.25537   -0.024362           
         C         C         0.41224   0.72184   0.24109   -0.017997           
         C         C         0.31245   0.58944   0.25877   -0.014510           
         C         C         0.27871   0.68840   0.25786   -0.016909           
         C         C         0.58684   0.27800   0.25513   -0.018059           
         C         C         0.68795   0.41060   0.23913   -0.013962           
         C         C         0.71954   0.30952   0.24321   -0.022951           
         C         C         0.78579   0.40967   0.23933   0.084958  
         C         C         0.58838   0.37661   0.25207   0.083440  
         C         C         0.62080   0.21180   0.24697   0.082681  
         C         C         0.21352   0.58806   0.26129   0.085540  
         C         C         0.41223   0.62395   0.24253   0.080773  
         C         C         0.37618   0.78634   0.24975   0.082892  
         C         C         0.41165   0.78656   0.24260   0.085062  
         C         C         0.37685   0.58876   0.24678   0.085518  
         C         C         0.21357   0.62360   0.26081   0.084014  
         C         C         0.58578   0.21247   0.25477   0.084376  
         C         C         0.62377   0.41188   0.24822   0.082677  
         C         C         0.78534   0.37405   0.24154   0.083939  
         B         B         0.91465   0.45562   0.24535   0.582169  
         B         B         0.54224   0.45844   0.25344   0.587524  
         B         B         0.53867   0.08332   0.24625   0.577733  
         B         B         0.08508   0.54157   0.26327   0.581972  
         B         B         0.45835   0.54207   0.23994   0.586040  
         B         B         0.45636   0.91515   0.24998   0.578652  
         C         C         0.04113   0.51956   0.26305   -0.221718           
         C         C         0.48026   0.52043   0.24392   -0.224132           
         C         C         0.47748   0.95876   0.24782   -0.213968           
         C         C         0.95886   0.47769   0.24842   -0.218936           
         C         C         0.52033   0.48011   0.25015   -0.225675           
         C         C         0.51717   0.03975   0.24891   -0.216797           
         C         C         0.02029   0.53863   0.25625   -0.051757           
         C         C         0.46028   0.48050   0.24679   -0.059505           
         C         C         0.51777   0.97991   0.24732   -0.064429           
         C         C         0.97970   0.45863   0.25547   -0.053212           
         C         C         0.54025   0.51995   0.24676   -0.061517           
         C         C         0.47679   0.01851   0.24853   -0.064463           
         C         C         0.53729   0.01972   0.24792   -0.055556           
         C         C         0.48000   0.46069   0.25034   -0.056463           
         C         C         0.97984   0.51804   0.24938   -0.067438           
         C         C         0.45722   0.97861   0.24730   -0.054049           
         C         C         0.52056   0.53978   0.24334   -0.054703           
         C         C         0.02020   0.47927   0.26248   -0.066728           
         H         H         0.03594   0.56940   0.25357   0.108187  
         H         H         0.42920   0.46523   0.24778   0.106226  
         H         H         0.53370   0.96485   0.24726   0.109578  
         H         H         0.96399   0.42780   0.25776   0.107759  
         H         H         0.57126   0.53509   0.24504   0.107136  
         H         H         0.46099   0.03374   0.24945   0.109872  
         H         H         0.56834   0.03570   0.24654   0.110067  
         H         H         0.46446   0.43022   0.25556   0.108221  
         H         H         0.96402   0.53305   0.24392   0.108828  
         H         H         0.42615   0.96264   0.24833   0.107282  
         H         H         0.53610   0.57017   0.23759   0.106725  
         H         H         0.03602   0.46428   0.26825   0.108855  
         H         H         0.82148   0.47153   0.23708   0.154262  
         H         H         0.52717   0.35070   0.26333   0.152553  
         H         H         0.64703   0.17590   0.23692   0.154440  
         H         H         0.17835   0.52598   0.26200   0.154414  
         H         H         0.47350   0.65014   0.23176   0.153285  
         H         H         0.34857   0.82080   0.25676   0.154145  
         H         H         0.47312   0.82192   0.23560   0.154438  
         H         H         0.35027   0.52735   0.25286   0.152333  
         H         H         0.17880   0.65075   0.26219   0.153535  
         H         H         0.52431   0.17812   0.26317   0.152992  
         H         H         0.65031   0.47321   0.24115   0.153701  
         H         H         0.81996   0.34676   0.24384   0.154241  
         O         O         0.89239   0.47338   0.24648   -0.336228           
         O         O         0.52526   0.41898   0.25852   -0.335037           
         O         O         0.57840   0.10577   0.24139   -0.338258           
         O         O         0.10729   0.52375   0.25767   -0.337813           
         O         O         0.47516   0.58135   0.23341   -0.335096           
         O         O         0.41643   0.89167   0.25148   -0.339695           
         O         O         0.47432   0.89309   0.24879   -0.336805           
         O         O         0.41847   0.52504   0.24304   -0.334540           
         O         O         0.10831   0.58197   0.26617   -0.336906           
         O         O         0.52147   0.10612   0.24891   -0.338142           
         O         O         0.58214   0.47549   0.25056   -0.335160           
         O         O         0.89111   0.41530   0.24305   -0.335457           
         C         C         0.85565   0.44785   0.74685   0.173701  
         C         C         0.55362   0.40998   0.75863   0.173917  
         C         C         0.59069   0.14477   0.74296   0.172594  
         C         C         0.14564   0.55698   0.75807   0.179249  
         C         C         0.44417   0.58731   0.73638   0.172085  
         C         C         0.41432   0.85674   0.75411   0.172024  
         C         C         0.44867   0.85626   0.74976   0.177073  
         C         C         0.40940   0.55304   0.73900   0.173037  
         C         C         0.14637   0.59211   0.76007   0.166979  
         C         C         0.55599   0.14431   0.74984   0.176106  
         C         C         0.58804   0.44430   0.75463   0.171426  
         C         C         0.85561   0.41315   0.74633   0.174499  
         C         C         0.82188   0.44865   0.74254   -0.221132           
         C         C         0.55202   0.37517   0.75829   -0.226273           
         C         C         0.62493   0.17855   0.74102   -0.216058           
         C         C         0.17881   0.55522   0.75907   -0.218353           
         C         C         0.44635   0.62251   0.73856   -0.224348           
         C         C         0.37938   0.82354   0.75523   -0.217205           
         C         C         0.44953   0.82236   0.74469   -0.214989           
         C         C         0.37510   0.55225   0.74379   -0.222800           
         C         C         0.18012   0.62693   0.76096   -0.221399           
         C         C         0.55410   0.17782   0.75752   -0.214982           
         C         C         0.62252   0.44550   0.74970   -0.224887           
         C         C         0.82198   0.37776   0.74307   -0.227577           
         C         C         0.75132   0.41191   0.73585   -0.067160           
         C         C         0.58689   0.34045   0.75306   -0.069289           
         C         C         0.65815   0.24852   0.74437   -0.061782           
         C         C         0.24879   0.59016   0.75984   -0.066927           
         C         C         0.41234   0.65809   0.74496   -0.069933           
         C         C         0.34418   0.75340   0.75106   -0.064027           
         C         C         0.41357   0.75237   0.74247   -0.064416           
         C         C         0.34187   0.58870   0.75156   -0.065496           
         C         C         0.24970   0.66054   0.75801   -0.067233           
         C         C         0.58820   0.24783   0.76016   -0.065398           
         C         C         0.65654   0.40999   0.74295   -0.068953           
         C         C         0.75187   0.34263   0.73994   -0.068634           
         C         C         0.72037   0.41089   0.73547   -0.015643           
         C         C         0.58726   0.31049   0.75586   -0.017226           
         C         C         0.68832   0.27904   0.74244   -0.022558           
         C         C         0.27912   0.59001   0.75894   -0.016690           
         C         C         0.41272   0.68857   0.74408   -0.017731           
         C         C         0.31360   0.72327   0.75282   -0.018948           
         C         C         0.41314   0.72185   0.74325   -0.019658           
         C         C         0.31194   0.58943   0.75573   -0.015713           
         C         C         0.28029   0.69051   0.75544   -0.020680           
         C         C         0.58775   0.27783   0.75856   -0.019271           
         C         C         0.68696   0.41029   0.73824   -0.013641           
         C         C         0.72138   0.31225   0.74090   -0.018274           
         C         C         0.78654   0.41283   0.73880   0.084878  
         C         C         0.58686   0.37501   0.75292   0.084523  
         C         C         0.62415   0.21354   0.74719   0.080896  
         C         C         0.21422   0.59038   0.76000   0.086324  
         C         C         0.41169   0.62306   0.74336   0.084753  
         C         C         0.37899   0.78801   0.75024   0.081551  
         C         C         0.41408   0.78736   0.74443   0.084194  
         C         C         0.37592   0.58781   0.74561   0.083318  
         C         C         0.21480   0.62621   0.75989   0.085892  
         C         C         0.58874   0.21327   0.75648   0.086857  
         C         C         0.62223   0.41032   0.74914   0.084945  
         C         C         0.78667   0.37745   0.74015   0.086835  
         B         B         0.91604   0.46102   0.74871   0.580270  
         B         B         0.54050   0.45660   0.75354   0.587451  
         B         B         0.54459   0.08442   0.74574   0.577029  
         B         B         0.08602   0.54531   0.76184   0.580661  
         B         B         0.45650   0.54012   0.74043   0.587477  
         B         B         0.46166   0.91639   0.75084   0.579491  
         C         C         0.04208   0.52379   0.76184   -0.216610           
         C         C         0.47835   0.51842   0.74479   -0.227696           
         C         C         0.48340   0.95988   0.74761   -0.216126           
         C         C         0.96013   0.48306   0.75052   -0.221035           
         C         C         0.51862   0.47830   0.75062   -0.225150           
         C         C         0.52342   0.04078   0.74780   -0.213002           
         C         C         0.02140   0.54291   0.75250   -0.054046           
         C         C         0.45821   0.47815   0.74474   -0.059657           
         C         C         0.52371   0.98084   0.74722   -0.065810           
         C         C         0.98086   0.46398   0.76042   -0.053064           
         C         C         0.53880   0.51862   0.75104   -0.061295           
         C         C         0.48313   0.01981   0.74827   -0.066204           
         C         C         0.54342   0.02066   0.74781   -0.052330           
         C         C         0.47802   0.45842   0.74796   -0.054753           
         C         C         0.98104   0.52285   0.74694   -0.066184           
         C         C         0.46345   0.98005   0.74794   -0.054630           
         C         C         0.51899   0.53835   0.74794   -0.051579           
         C         C         0.02116   0.48402   0.76559   -0.068579           
         H         H         0.03719   0.57340   0.74759   0.107465  
         H         H         0.42697   0.46261   0.74408   0.107103  
         H         H         0.53943   0.96556   0.74687   0.109134  
         H         H         0.96519   0.43362   0.76657   0.109069  
         H         H         0.57013   0.53433   0.75264   0.107397  
         H         H         0.46736   0.03503   0.74843   0.110071  
         H         H         0.57450   0.03649   0.74684   0.106594  
         H         H         0.46234   0.42766   0.75085   0.106655  
         H         H         0.96529   0.53782   0.73855   0.108433  
         H         H         0.43246   0.96429   0.74971   0.109723  
         H         H         0.53470   0.56924   0.74601   0.106067  
         H         H         0.03693   0.46912   0.77447   0.108980  
         H         H         0.82161   0.47509   0.73959   0.155436  
         H         H         0.52555   0.34875   0.76297   0.152610  
         H         H         0.65181   0.17898   0.73607   0.153982  
         H         H         0.17855   0.52856   0.76230   0.154399  
         H         H         0.47326   0.64901   0.73634   0.151930  
         H         H         0.35284   0.82394   0.75811   0.154762  
         H         H         0.47592   0.82180   0.73953   0.153480  
         H         H         0.34859   0.52604   0.74931   0.152947  
         H         H         0.18046   0.65388   0.76086   0.153582  
         H         H         0.52756   0.17778   0.76607   0.154227  
         H         H         0.64877   0.47165   0.74275   0.153754  
         H         H         0.82203   0.35100   0.74310   0.153796  
         O         O         0.89331   0.47821   0.74930   -0.335814           
         O         O         0.52360   0.41719   0.75881   -0.335656           
         O         O         0.58425   0.10774   0.74123   -0.339071           
         O         O         0.10806   0.52729   0.75797   -0.336778           
         O         O         0.47384   0.57962   0.73540   -0.335769           
         O         O         0.42180   0.89397   0.75436   -0.339197           
         O         O         0.47877   0.89356   0.74955   -0.338677           
         O         O         0.41648   0.52318   0.74139   -0.334976           
         O         O         0.10950   0.58552   0.76325   -0.335151           
         O         O         0.52672   0.10667   0.74997   -0.336851           
         O         O         0.58036   0.47363   0.75067   -0.334106           
         O         O         0.89306   0.42081   0.74769   -0.335654 

