
##########################################################################
#               Crystallographic Information Format file
#               Produced by PyCifRW module
#
#  This is a CIF file.  CIF has been adopted by the International
#  Union of Crystallography as the standard for data archiving and
#  transmission.
#
#  For information on this file format, follow the CIF links at
#  http://www.iucr.org
##########################################################################

data_image0

_cell_length_a                          36.6976
_cell_length_b                          36.2752
_cell_length_c                          7.86936
_cell_angle_alpha                       96.3855
_cell_angle_beta                        98.977
_cell_angle_gamma                       118.914
_symmetry_space_group_name_H-M          'P 1'
_space_group_name_Hall                  'P 1'
loop_
  _atom_site_type_symbol
  _atom_site_label
  _atom_site_fract_x
  _atom_site_fract_y
  _atom_site_fract_z
  _atom_site_charge
         C         C         0.54056   0.10536   0.42131   0.051980  
         N         N         0.56511   0.08472   0.47021   -0.376529           
         C         C         0.54553   0.03987   0.41029   0.212189  
         C         C         0.88228   0.41573   0.38616   0.050301  
         N         N         0.90550   0.44743   0.28830   -0.385548           
         C         C         0.94815   0.45962   0.28334   0.194637  
         C         C         0.57493   0.45492   0.18948   0.061632  
         N         N         0.53379   0.44086   0.23500   -0.389635           
         C         C         0.51785   0.46886   0.26426   0.195113  
         C         C         0.46691   0.88012   0.43314   0.056789  
         N         N         0.46628   0.90426   0.29914   -0.392763           
         C         C         0.49693   0.94860   0.32521   0.186078  
         C         C         0.10722   0.56259   0.40967   0.051333  
         N         N         0.08255   0.51573   0.34718   -0.383012           
         C         C         0.03727   0.49517   0.31246   0.194357  
         C         C         0.42119   0.53304   0.35007   0.055390  
         N         N         0.45841   0.54475   0.27735   -0.408205           
         C         C         0.47724   0.51845   0.27605   0.189694  
         C         C         0.55560   0.01563   0.51488   -0.180951           
         C         C         0.53198   0.97070   0.47196   -0.186390           
         H         H         0.58021   0.03210   0.63772   0.112374  
         H         H         0.53952   0.95290   0.55956   0.104674  
         H         H         0.39974   0.49781   0.32103   0.051910  
         C         C         0.39611   0.81706   0.24017   -0.135762           
         C         C         0.36574   0.77295   0.19547   -0.131382           
         H         H         0.38815   0.83946   0.18750   0.105409  
         H         H         0.33490   0.76127   0.10520   0.102175  
         C         C         0.17517   0.62829   0.38087   -0.136029           
         C         C         0.21526   0.64602   0.34191   -0.131132           
         H         H         0.16831   0.64885   0.46504   0.102180  
         H         H         0.23905   0.67965   0.40083   0.105139  
         C         C         0.27121   0.63721   0.22332   0.081229  
         C         C         0.14528   0.58382   0.32662   0.058345  
         C         C         0.22647   0.62060   0.23892   0.056143  
         C         C         0.28717   0.60892   0.20790   -0.189756           
         H         H         0.28851   0.70416   0.25548   0.101647  
         C         C         0.97023   0.49168   0.19284   -0.186552           
         C         C         0.01409   0.50930   0.20692   -0.184642           
         H         H         0.95304   0.50368   0.11304   0.115176  
         H         H         0.03028   0.53475   0.13810   0.112611  
         H         H         0.49877   0.88409   0.48090   0.050029  
         C         C         0.15439   0.55956   0.20763   -0.151126           
         C         C         0.19392   0.57773   0.16234   -0.138195           
         H         H         0.13078   0.52546   0.15821   0.097455  
         H         H         0.20024   0.55798   0.07078   0.101626  
         C         C         0.35375   0.53621   0.30588   -0.136666           
         C         C         0.33170   0.55809   0.27630   -0.123986           
         H         H         0.33974   0.50778   0.36213   0.101752  
         H         H         0.30108   0.54650   0.31154   0.105661  
         C         C         0.33032   0.62381   0.20741   0.074749  
         C         C         0.39493   0.55178   0.27623   0.044462  
         C         C         0.34964   0.59619   0.21229   0.054088  
         C         C         0.35722   0.66795   0.21892   -0.179376           
         H         H         0.26566   0.57493   0.20232   0.102733  
         C         C         0.47863   0.45341   0.31315   -0.179461           
         C         C         0.45878   0.47780   0.31948   -0.177143           
         H         H         0.46316   0.42170   0.34482   0.112279  
         H         H         0.42876   0.46471   0.36024   0.108795  
         H         H         0.08538   0.57435   0.36990   0.069661  
         C         C         0.41141   0.58773   0.19954   -0.145305           
         C         C         0.38909   0.60922   0.16721   -0.123491           
         H         H         0.44262   0.60057   0.16854   0.106073  
         H         H         0.40332   0.63724   0.10918   0.105657  
         C         C         0.44560   0.80298   0.41835   -0.133646           
         C         C         0.41527   0.75928   0.37603   -0.118868           
         H         H         0.47645   0.81456   0.50816   0.100481  
         H         H         0.42241   0.73698   0.43421   0.101232  
         C         C         0.34269   0.69704   0.23572   0.078754  
         C         C         0.43597   0.83276   0.35695   0.045292  
         C         C         0.37439   0.74349   0.26649   0.061228  
         C         C         0.29958   0.68140   0.23756   -0.183815           
         H         H         0.39078   0.68055   0.21982   0.101668  
         H         H         0.52804   0.42005   0.31768   0.263752  
         C         C         0.48983   0.97267   0.21056   -0.183522           
         C         C         0.51435   0.01751   0.25006   -0.191529           
         H         H         0.46336   0.95616   0.09354   0.112783  
         H         H         0.50734   0.03502   0.15964   0.102589  
         H         H         0.60035   0.48528   0.27967   0.052008  
         C         C         0.60734   0.16652   0.37492   -0.117886           
         C         C         0.62808   0.20508   0.32124   -0.132897           
         H         H         0.62538   0.15719   0.46520   0.103638  
         H         H         0.66236   0.22673   0.37501   0.105898  
         C         C         0.81072   0.35006   0.34306   -0.137031           
         C         C         0.76626   0.32893   0.30265   -0.124562           
         H         H         0.82710   0.33648   0.41697   0.103462  
         H         H         0.74842   0.29940   0.34785   0.105540  
         C         C         0.69761   0.32680   0.19670   0.075487  
         C         C         0.83498   0.39037   0.30247   0.048311  
         C         C         0.74418   0.34669   0.21485   0.053428  
         C         C         0.67856   0.35216   0.20459   -0.176061           
         H         H         0.68605   0.26227   0.17826   0.099551  
         C         C         0.01440   0.46033   0.38813   -0.175327           
         C         C         0.97073   0.44302   0.37540   -0.184051           
         H         H         0.03169   0.44867   0.46934   0.108126  
         H         H         0.95518   0.41792   0.44632   0.102672  
         H         H         0.50897   0.08066   0.33846   0.058454  
         C         C         0.81305   0.40661   0.20368   -0.144807           
         C         C         0.76831   0.38496   0.15952   -0.124812           
         H         H         0.83045   0.43724   0.16509   0.102199  
         H         H         0.75194   0.39819   0.08311   0.103493  
         C         C         0.62501   0.43164   0.32856   -0.139941           
         C         C         0.63982   0.40277   0.33019   -0.127132           
         H         H         0.64377   0.46327   0.41720   0.107288  
         H         H         0.66949   0.41143   0.42235   0.100995  
         C         C         0.63487   0.33383   0.20086   0.078287  
         C         C         0.58704   0.42105   0.20995   0.041921  
         C         C         0.61666   0.36221   0.21428   0.063002  
         C         C         0.60982   0.28927   0.18971   -0.186762           
         H         H         0.69805   0.38676   0.21622   0.105100  
         C         C         0.51735   0.53465   0.23575   -0.172070           
         C         C         0.53760   0.51059   0.23203   -0.180275           
         H         H         0.53275   0.56645   0.20467   0.116405  
         H         H         0.56841   0.52426   0.19787   0.108165  
         H         H         0.89330   0.39247   0.39080   0.053087  
         C         C         0.56227   0.37940   0.10303   -0.127927           
         C         C         0.57685   0.35036   0.10547   -0.131471           
         H         H         0.53262   0.37053   0.01015   0.107998  
         H         H         0.55839   0.31884   0.01612   0.106813  
         C         C         0.53991   0.15118   0.19740   -0.159301           
         C         C         0.56101   0.18993   0.14068   -0.142828           
         H         H         0.50523   0.13036   0.15007   0.104166  
         H         H         0.54294   0.19856   0.04659   0.106905  
         C         C         0.62840   0.26337   0.18671   0.080583  
         C         C         0.56252   0.14022   0.32263   0.056177  
         C         C         0.60518   0.21857   0.20962   0.054493  
         C         C         0.67192   0.28253   0.18631   -0.191396           
         H         H         0.57638   0.27520   0.19522   0.104769  
         H         H         0.45614   0.55452   0.16184   0.257088  
         H         H         0.57731   0.09313   0.60344   0.242428  
         H         H         0.88726   0.44415   0.16976   0.245296  
         H         H         0.45798   0.88689   0.17395   0.244021  
         H         H         0.09263   0.50205   0.43555   0.237866  
         C         C         0.53111   0.12541   0.59515   0.061136  
         N         N         0.53260   0.10303   0.73551   -0.398323           
         C         C         0.50315   0.05809   0.71129   0.185986  
         C         C         0.89174   0.43786   0.59923   0.052246  
         N         N         0.92039   0.48446   0.64330   -0.382721           
         C         C         0.96531   0.50220   0.68096   0.204537  
         C         C         0.57376   0.46566   0.99406   0.056309  
         N         N         0.52972   0.44778   0.89438   -0.386646           
         C         C         0.51783   0.47579   0.82599   0.188728  
         C         C         0.45657   0.89737   0.61260   0.053951  
         N         N         0.43397   0.92057   0.57601   -0.376928           
         C         C         0.45557   0.96595   0.63060   0.213870  
         C         C         0.12215   0.57742   0.62516   0.051648  
         N         N         0.09637   0.54334   0.71126   -0.384833           
         C         C         0.05455   0.53398   0.72026   0.193653  
         C         C         0.43610   0.54724   0.56609   0.059785  
         N         N         0.48101   0.56089   0.63339   -0.379748           
         C         C         0.49276   0.53267   0.69959   0.203532  
         C         C         0.51230   0.03435   0.82223   -0.178687           
         C         C         0.48869   0.98935   0.78490   -0.188865           
         H         H         0.53983   0.05134   0.93510   0.111187  
         H         H         0.49814   0.97273   0.87267   0.103944  
         H         H         0.41680   0.51772   0.61058   0.056642  
         C         C         0.38885   0.83085   0.63172   -0.120727           
         C         C         0.36907   0.78966   0.66620   -0.133273           
         H         H         0.37034   0.84041   0.54523   0.103452  
         H         H         0.33553   0.76708   0.60090   0.106091  
         C         C         0.19507   0.63562   0.80310   -0.140873           
         C         C         0.23960   0.65678   0.83473   -0.131015           
         H         H         0.17978   0.65221   0.85478   0.107715  
         H         H         0.25881   0.68949   0.91367   0.099873  
         C         C         0.30627   0.66125   0.76948   0.077860  
         C         C         0.16929   0.59409   0.69641   0.043214  
         C         C         0.25988   0.63691   0.76128   0.066425  
         C         C         0.32923   0.63993   0.75853   -0.177176           
         H         H         0.31022   0.72273   0.77968   0.099112  
         C         C         0.99087   0.53817   0.61561   -0.177518           
         C         C         0.03457   0.55380   0.63485   -0.183451           
         H         H         0.97591   0.55272   0.53978   0.110112  
         H         H         0.05258   0.58061   0.57538   0.101404  
         H         H         0.48796   0.92015   0.70171   0.059990  
         C         C         0.18953   0.57219   0.64161   -0.128100           
         C         C         0.23404   0.59343   0.67147   -0.127666           
         H         H         0.17050   0.53950   0.56192   0.109001  
         H         H         0.24872   0.57695   0.61354   0.105614  
         C         C         0.39161   0.56721   0.72476   -0.150792           
         C         C         0.37619   0.59434   0.77017   -0.129991           
         H         H         0.37665   0.53515   0.75395   0.102871  
         H         H         0.34995   0.58289   0.83536   0.104314  
         C         C         0.37286   0.66160   0.75798   0.075683  
         C         C         0.42511   0.57997   0.63931   0.052692  
         C         C         0.39354   0.63560   0.73096   0.049779  
         C         C         0.39395   0.70660   0.77216   -0.188445           
         H         H         0.31245   0.60529   0.74811   0.101080  
         C         C         0.47896   0.47268   0.84270   -0.179362           
         C         C         0.46670   0.50063   0.78202   -0.203899           
         H         H         0.45896   0.44914   0.91183   0.110325  
         H         H         0.43705   0.49790   0.80438   0.103477  
         H         H         0.11773   0.60517   0.65586   0.051798  
         C         C         0.44465   0.62214   0.61126   -0.122358           
         C         C         0.42898   0.64926   0.65488   -0.128464           
         H         H         0.47130   0.63335   0.54783   0.105972  
         H         H         0.44332   0.68079   0.62133   0.102522  
         C         C         0.45550   0.84705   0.81669   -0.160271           
         C         C         0.43530   0.80587   0.85536   -0.138537           
         H         H         0.48962   0.86905   0.87543   0.102292  
         H         H         0.45347   0.79686   0.94705   0.106262  
         C         C         0.37164   0.72906   0.77965   0.079657  
         C         C         0.43322   0.85932   0.69621   0.052080  
         C         C         0.39228   0.77535   0.77145   0.058715  
         C         C         0.32791   0.70585   0.77806   -0.184987           
         H         H         0.42778   0.72440   0.77178   0.103026  
         H         H         0.50905   0.42983   0.96492   0.238141  
         C         C         0.44422   0.98979   0.52773   -0.180709           
         C         C         0.46713   0.03480   0.56821   -0.183283           
         H         H         0.41844   0.97287   0.40839   0.111226  
         H         H         0.45772   0.05158   0.48106   0.105603  
         H         H         0.59026   0.50106   0.01571   0.052113  
         C         C         0.60342   0.19239   0.75929   -0.133640           
         C         C         0.63281   0.23638   0.77980   -0.125269           
         H         H         0.61352   0.17253   0.82253   0.106609  
         H         H         0.66504   0.25035   0.86153   0.102710  
         C         C         0.83401   0.39251   0.75051   -0.153927           
         C         C         0.79253   0.37554   0.77721   -0.134174           
         H         H         0.85368   0.37952   0.80207   0.103503  
         H         H         0.78064   0.35002   0.85014   0.103436  
         C         C         0.72088   0.37201   0.72346   0.074319  
         C         C         0.85031   0.42497   0.65514   0.055455  
         C         C         0.76592   0.39085   0.70899   0.056396  
         C         C         0.70353   0.39888   0.74481   -0.202217           
         H         H         0.70709   0.30621   0.69044   0.109262  
         C         C         0.02999   0.50124   0.80362   -0.179518           
         C         C         0.98627   0.48567   0.78482   -0.190937           
         H         H         0.04488   0.48694   0.88170   0.115492  
         H         H         0.96843   0.45992   0.84970   0.110037  
         H         H         0.49890   0.12052   0.54611   0.046648  
         C         C         0.82470   0.44210   0.59734   -0.123684           
         C         C         0.78342   0.42525   0.62280   -0.132341           
         H         H         0.83644   0.46786   0.52551   0.103803  
         H         H         0.76350   0.43758   0.56759   0.102801  
         C         C         0.64262   0.46727   0.97536   -0.140796           
         C         C         0.66365   0.44672   0.91832   -0.133667           
         H         H         0.65949   0.49464   0.08713   0.101601  
         H         H         0.69646   0.45781   0.98695   0.104123  
         C         C         0.66048   0.38203   0.75000   0.076815  
         C         C         0.59904   0.45082   0.90022   0.049926  
         C         C         0.64178   0.40944   0.78318   0.055618  
         C         C         0.63478   0.33751   0.73472   -0.180149           
         H         H         0.72399   0.43349   0.75850   0.103795  
         C         C         0.53212   0.53634   0.68611   -0.186641           
         C         C         0.54435   0.50823   0.74645   -0.190675           
         H         H         0.55269   0.56067   0.62138   0.106217  
         H         H         0.57442   0.51120   0.72872   0.112789  
         H         H         0.90809   0.42393   0.67251   0.065684  
         C         C         0.57883   0.41700   0.75174   -0.138932           
         C         C         0.59990   0.39661   0.69291   -0.131680           
         H         H         0.54549   0.40552   0.68976   0.100913  
         H         H         0.58340   0.36953   0.58005   0.103409  
         C         C         0.54962   0.20056   0.57964   -0.137539           
         C         C         0.57879   0.24419   0.59970   -0.122171           
         H         H         0.51728   0.18666   0.49842   0.099201  
         H         H         0.56904   0.26396   0.53400   0.104731  
         C         C         0.65106   0.30975   0.71593   0.079059  
         C         C         0.56166   0.17354   0.65404   0.046370  
         C         C         0.62133   0.26303   0.69861   0.063497  
         C         C         0.69434   0.32746   0.71120   -0.177815           
         H         H         0.60202   0.32464   0.74811   0.102177  
         H         H         0.49917   0.57668   0.55123   0.247895  
         H         H         0.54130   0.12106   0.85991   0.244381  
         H         H         0.91142   0.49837   0.55272   0.242713  
         H         H         0.41855   0.91149   0.44586   0.243704  
         H         H         0.11421   0.54417   0.82660   0.246216 

