
##########################################################################
#               Crystallographic Information Format file
#               Produced by PyCifRW module
#
#  This is a CIF file.  CIF has been adopted by the International
#  Union of Crystallography as the standard for data archiving and
#  transmission.
#
#  For information on this file format, follow the CIF links at
#  http://www.iucr.org
##########################################################################

data_image0

_cell_length_a                          39.613
_cell_length_b                          32.6025
_cell_length_c                          10.1373
_cell_angle_alpha                       104.558
_cell_angle_beta                        95.9091
_cell_angle_gamma                       90.1114
_symmetry_space_group_name_H-M          'P 1'
_space_group_name_Hall                  'P 1'
loop_
  _atom_site_type_symbol
  _atom_site_label
  _atom_site_fract_x
  _atom_site_fract_y
  _atom_site_fract_z
  _atom_site_charge
         C         C         0.24618   0.78407   0.20249   -0.231952           
         C         C         0.74947   0.29103   0.26526   -0.226812           
         C         C         0.75584   0.20991   0.29737   -0.220654           
         C         C         0.25475   0.71575   0.31809   -0.232956           
         C         C         0.75666   0.79038   0.29861   -0.228812           
         C         C         0.25326   0.28094   0.20707   -0.218449           
         C         C         0.24704   0.21180   0.31653   -0.221915           
         C         C         0.74322   0.70432   0.25656   -0.227044           
         C         C         0.28284   0.73740   0.29625   0.208310  
         C         C         0.78452   0.23284   0.28707   0.210236  
         C         C         0.72042   0.26642   0.26278   0.207967  
         C         C         0.21807   0.76165   0.22020   0.211063  
         C         C         0.71660   0.73182   0.25789   0.207245  
         C         C         0.21850   0.23423   0.28943   0.208066  
         C         C         0.28157   0.25773   0.22975   0.203252  
         C         C         0.78323   0.76268   0.29430   0.209755  
         C         C         0.19388   0.70007   0.29912   0.064973  
         C         C         0.69447   0.19693   0.28894   0.087392  
         C         C         0.81093   0.30272   0.26784   0.095017  
         C         C         0.30672   0.80241   0.23586   0.062652  
         C         C         0.80352   0.68705   0.26211   0.070556  
         C         C         0.30685   0.19363   0.29991   0.082223  
         C         C         0.19395   0.29977   0.22622   0.084406  
         C         C         0.69619   0.80707   0.27515   0.065946  
         C         C         0.27959   0.77348   0.24278   -0.007349           
         C         C         0.78219   0.27468   0.27352   -0.003454           
         C         C         0.72288   0.22532   0.28257   -0.015617           
         C         C         0.22128   0.72710   0.28148   -0.006976           
         C         C         0.72239   0.77587   0.27765   -0.008001           
         C         C         0.22115   0.27030   0.23781   -0.010361           
         C         C         0.27914   0.22244   0.28549   -0.006038           
         C         C         0.77741   0.71860   0.27155   -0.003532           
         N         N         0.33830   0.79868   0.27933   -0.271446           
         N         N         0.83681   0.28991   0.20422   -0.243293           
         N         N         0.66749   0.19130   0.20431   -0.242150           
         N         N         0.16250   0.70282   0.25191   -0.269646           
         N         N         0.66544   0.79728   0.22012   -0.247318           
         N         N         0.17134   0.30721   0.31090   -0.258927           
         N         N         0.32728   0.18351   0.20722   -0.251487           
         N         N         0.83446   0.69401   0.24097   -0.262369           
         N         N         0.05425   0.49922   0.25604   -0.355331           
         N         N         0.55525   0.00074   0.26423   -0.305914           
         N         N         0.94828   0.49374   0.24614   -0.360453           
         N         N         0.44750   0.99810   0.26019   -0.299507           
         H         H         0.03335   0.49271   0.18599   0.253339  
         H         H         0.53254   0.99519   0.20541   0.260905  
         H         H         0.96445   0.49049   0.17239   0.259031  
         H         H         0.46710   0.99327   0.20129   0.266259  
         C         C         0.07594   0.46451   0.26027   0.154754  
         C         C         0.57633   0.96742   0.28014   0.151452  
         C         C         0.92578   0.52826   0.25253   0.162407  
         C         C         0.42811   0.03438   0.27795   0.155932  
         C         C         0.92862   0.45653   0.24293   0.146168  
         C         C         0.42945   0.96540   0.29101   0.145878  
         C         C         0.07468   0.53538   0.25541   0.159981  
         C         C         0.57481   0.03775   0.27851   0.154759  
         C         C         0.11016   0.48071   0.27001   -0.166567           
         C         C         0.60942   0.98489   0.31472   -0.206346           
         C         C         0.89242   0.51161   0.25999   -0.171247           
         C         C         0.39799   0.02471   0.32619   -0.212315           
         C         C         0.89435   0.46962   0.25760   -0.165262           
         C         C         0.39891   0.98244   0.33630   -0.204143           
         C         C         0.10942   0.52206   0.26358   -0.168568           
         C         C         0.60843   0.02807   0.31459   -0.205850           
         H         H         0.13250   0.46206   0.27914   0.134929  
         H         H         0.63163   0.96765   0.33780   0.131319  
         H         H         0.86965   0.52988   0.26770   0.132077  
         H         H         0.37824   0.04731   0.35184   0.132643  
         H         H         0.87391   0.44847   0.26496   0.135111  
         H         H         0.37981   0.96557   0.37331   0.134850  
         H         H         0.13127   0.54238   0.26639   0.133752  
         H         H         0.62972   0.05054   0.33867   0.133531  
         N         N         0.50240   0.93551   0.26321   -0.352295           
         N         N         0.00293   0.42983   0.24209   -0.309627           
         N         N         0.50033   0.06426   0.26075   -0.361239           
         N         N         -0.00064  0.56119   0.24604   -0.322620           
         C         C         0.53137   0.90973   0.24463   0.148304  
         C         C         0.03224   0.40576   0.23283   0.155237  
         C         C         0.47033   0.08739   0.24527   0.149198  
         C         C         0.96972   0.58519   0.25536   0.152959  
         C         C         0.47329   0.90904   0.25433   0.152078  
         C         C         0.97434   0.40269   0.22112   0.149585  
         C         C         0.52884   0.08890   0.24668   0.153451  
         C         C         0.02788   0.58824   0.25596   0.146894  
         C         C         0.51877   0.86650   0.21248   -0.169636           
         C         C         0.02153   0.36294   0.19848   -0.205616           
         C         C         0.48076   0.12557   0.21159   -0.171164           
         C         C         0.98006   0.62709   0.26643   -0.204144           
         C         C         0.48438   0.86612   0.21604   -0.171614           
         C         C         0.98586   0.36113   0.18989   -0.200331           
         C         C         0.51532   0.12651   0.21230   -0.176027           
         C         C         0.01552   0.62902   0.26720   -0.204474           
         H         H         0.53458   0.83917   0.18791   0.137467  
         H         H         0.03836   0.33648   0.17964   0.132885  
         H         H         0.46296   0.14853   0.18739   0.136973  
         H         H         0.96337   0.65351   0.27199   0.134950  
         H         H         0.46750   0.83852   0.19276   0.138919  
         H         H         0.96923   0.33323   0.16223   0.135074  
         H         H         0.53080   0.15063   0.18873   0.136425  
         H         H         0.03076   0.65731   0.27553   0.133638  
         C         C         0.06627   0.42322   0.25293   -0.120490           
         C         C         0.56478   0.92384   0.25621   -0.119932           
         C         C         0.93532   0.56927   0.25276   -0.125782           
         C         C         0.43775   0.07433   0.25425   -0.121633           
         C         C         0.93998   0.41586   0.22964   -0.114684           
         C         C         0.44052   0.92229   0.27374   -0.130593           
         C         C         0.06299   0.57552   0.25413   -0.123528           
         C         C         0.56238   0.07736   0.25619   -0.133468           
         C         C         0.09363   0.39274   0.26602   0.072925  
         C         C         0.59138   0.89124   0.24578   0.076159  
         C         C         0.90828   0.60038   0.24828   0.076093  
         C         C         0.40921   0.10352   0.24323   0.076333  
         C         C         0.91405   0.38161   0.22130   0.068641  
         C         C         0.41419   0.88994   0.27321   0.080030  
         C         C         0.08840   0.60933   0.25616   0.078117  
         C         C         0.58906   0.10792   0.24222   0.070224  
         C         C         0.61472   0.89127   0.35976   -0.130187           
         C         C         0.11252   0.39570   0.39316   -0.130613           
         C         C         0.40425   0.13847   0.35184   -0.130924           
         C         C         0.88192   0.60518   0.33411   -0.131724           
         C         C         0.38280   0.88832   0.18997   -0.129567           
         C         C         0.89160   0.36682   0.10197   -0.136315           
         C         C         0.60820   0.09872   0.12918   -0.129590           
         C         C         0.08367   0.63734   0.17012   -0.131778           
         C         C         0.38606   0.09564   0.12424   -0.129116           
         C         C         0.90877   0.62801   0.16102   -0.131846           
         C         C         0.59325   0.85897   0.12512   -0.132953           
         C         C         0.10035   0.35971   0.15435   -0.132357           
         C         C         0.59659   0.14586   0.34301   -0.129980           
         C         C         0.11803   0.61563   0.34985   -0.131210           
         C         C         0.41972   0.85944   0.35092   -0.142199           
         C         C         0.91106   0.36419   0.33306   -0.122894           
         H         H         0.10697   0.42033   0.48201   0.109645  
         H         H         0.61254   0.91489   0.45528   0.104942  
         H         H         0.88211   0.58707   0.41066   0.109077  
         H         H         0.42182   0.14450   0.44470   0.108775  
         H         H         0.89366   0.38009   0.01464   0.103249  
         H         H         0.37902   0.91065   0.12530   0.115025  
         H         H         0.06126   0.63356   0.09545   0.109890  
         H         H         0.60266   0.06972   0.04874   0.106345  
         H         H         0.92848   0.62510   0.09217   0.107101  
         H         H         0.38987   0.06895   0.03872   0.102576  
         H         H         0.08570   0.35706   0.05600   0.109733  
         H         H         0.57583   0.85894   0.03502   0.107112  
         H         H         0.12104   0.59674   0.42426   0.104702  
         H         H         0.58246   0.15306   0.43209   0.110996  
         H         H         0.92822   0.37538   0.42639   0.101747  
         H         H         0.44374   0.86030   0.41613   0.104843  
         C         C         0.13766   0.36692   0.40762   -0.161978           
         C         C         0.63945   0.86082   0.35323   -0.184278           
         C         C         0.85696   0.63488   0.33090   -0.176636           
         C         C         0.37679   0.16477   0.34319   -0.183793           
         C         C         0.86675   0.33569   0.09467   -0.189340           
         C         C         0.35789   0.85775   0.18579   -0.175821           
         C         C         0.10788   0.66889   0.17530   -0.145406           
         C         C         0.63352   0.12670   0.11669   -0.168978           
         C         C         0.88487   0.65918   0.16190   -0.157095           
         C         C         0.35926   0.12240   0.11310   -0.163419           
         C         C         0.12593   0.33126   0.16697   -0.185696           
         C         C         0.61745   0.82786   0.11861   -0.153670           
         C         C         0.14243   0.64646   0.35343   -0.178683           
         C         C         0.62296   0.17334   0.33428   -0.193284           
         C         C         0.88546   0.33424   0.32839   -0.179567           
         C         C         0.39441   0.82928   0.34848   -0.146359           
         H         H         0.15167   0.36887   0.50678   0.121622  
         H         H         0.65610   0.86015   0.44461   0.105868  
         H         H         0.83819   0.63961   0.40426   0.113051  
         H         H         0.37276   0.19189   0.42701   0.116970  
         H         H         0.84963   0.32385   0.00188   0.098441  
         H         H         0.33484   0.85545   0.11484   0.111263  
         H         H         0.10451   0.68993   0.10706   0.130634  
         H         H         0.64774   0.12049   0.02796   0.121108  
         H         H         0.88617   0.68108   0.09713   0.125359  
         H         H         0.34154   0.11717   0.02105   0.121870  
         H         H         0.13087   0.30578   0.07963   0.115897  
         H         H         0.61932   0.80319   0.02522   0.131002  
         H         H         0.16393   0.65139   0.43188   0.100002  
         H         H         0.62949   0.20191   0.41542   0.114698  
         H         H         0.88200   0.32200   0.41642   0.115588  
         H         H         0.39775   0.80651   0.41154   0.125266  
         C         C         0.14526   0.33492   0.29391   0.199158  
         C         C         0.64150   0.82898   0.23158   0.198085  
         C         C         0.85791   0.66243   0.24406   0.195097  
         C         C         0.35410   0.15685   0.22338   0.196585  
         C         C         0.86283   0.32009   0.20937   0.200899  
         C         C         0.36269   0.82860   0.26918   0.197563  
         C         C         0.13837   0.67306   0.26315   0.195845  
         C         C         0.64164   0.16392   0.22049   0.197243  
         H         H         0.24258   0.81142   0.15999   0.143176  
         O         O         0.31426   0.72312   0.34070   -0.101693           
         H         H         0.20225   0.67496   0.34933   0.059586  
         C         C         0.66198   0.72491   0.31975   0.195155  
         C         C         0.63885   0.73294   0.39055   -0.467496           
         H         H         0.61985   0.74010   0.45896   0.244304  
         H         H         0.74620   0.32346   0.25658   0.143162  
         O         O         0.81479   0.21052   0.28812   -0.108438           
         H         H         0.69856   0.17912   0.36793   0.067913  
         C         C         0.15898   0.21932   0.24543   0.205856  
         C         C         0.13125   0.21542   0.18065   -0.460167           
         H         H         0.10623   0.21350   0.12842   0.251321  
         H         H         0.75959   0.17835   0.31316   0.142542  
         O         O         0.69038   0.28676   0.23855   -0.088099           
         H         H         0.80830   0.33640   0.31928   0.073820  
         C         C         0.34133   0.27324   0.26301   0.198779  
         C         C         0.36995   0.27819   0.32023   -0.459859           
         H         H         0.39526   0.28021   0.37046   0.250086  
         H         H         0.25914   0.68881   0.36245   0.137605  
         O         O         0.18618   0.77440   0.17136   -0.105961           
         H         H         0.29784   0.82934   0.19573   0.062092  
         C         C         0.82620   0.80261   0.24463   0.184062  
         C         C         0.83630   0.82605   0.18026   -0.474227           
         H         H         0.84594   0.84358   0.11551   0.252035  
         H         H         0.76289   0.82410   0.31617   0.141454  
         O         O         0.68403   0.71253   0.23095   -0.096573           
         H         H         0.79479   0.65581   0.27050   0.066072  
         C         C         0.33669   0.70904   0.25526   0.193055  
         C         C         0.36033   0.69668   0.19079   -0.478872           
         H         H         0.38014   0.68533   0.12935   0.252247  
         H         H         0.25693   0.30938   0.17228   0.142902  
         O         O         0.18810   0.21777   0.31883   -0.095005           
         H         H         0.30770   0.17978   0.38869   0.071081  
         C         C         0.84079   0.22716   0.37649   0.195903  
         C         C         0.86667   0.23958   0.44962   -0.452766           
         H         H         0.88778   0.25144   0.52292   0.244326  
         H         H         0.24403   0.18408   0.35581   0.140571  
         O         O         0.31158   0.27272   0.19080   -0.098218           
         H         H         0.19507   0.31687   0.14624   0.070809  
         C         C         0.66138   0.27953   0.28176   0.192006  
         C         C         0.63284   0.27889   0.31277   -0.446129           
         H         H         0.60837   0.27482   0.34335   0.247105  
         H         H         0.73743   0.67062   0.23964   0.140957  
         O         O         0.81675   0.77922   0.32349   -0.092890           
         H         H         0.70482   0.84023   0.32014   0.068403  
         C         C         0.16636   0.79251   0.26377   0.191464  
         C         C         0.14783   0.81057   0.34578   -0.482294           
         H         H         0.13180   0.82508   0.42041   0.250657  
         H         H         0.50498   0.96239   0.34087   0.261081  
         H         H         0.00307   0.45976   0.30355   0.261085  
         H         H         0.50245   0.04947   0.33853   0.266838  
         H         H         0.00166   0.53649   0.29046   0.250941  
         C         C         0.24519   0.78666   0.74565   -0.226618           
         C         C         0.74439   0.29668   0.78365   -0.222605           
         C         C         0.74850   0.21067   0.66491   -0.228440           
         C         C         0.25706   0.70184   0.71560   -0.226666           
         C         C         0.74998   0.78491   0.66480   -0.225149           
         C         C         0.25161   0.28920   0.79826   -0.228533           
         C         C         0.24348   0.20392   0.66848   -0.229528           
         C         C         0.75036   0.72040   0.79731   -0.225510           
         C         C         0.28440   0.72984   0.72773   0.214638  
         C         C         0.77685   0.23712   0.68244   0.202862  
         C         C         0.71590   0.27035   0.76698   0.214236  
         C         C         0.21805   0.75903   0.73897   0.210066  
         C         C         0.72055   0.74154   0.77901   0.207542  
         C         C         0.21539   0.22916   0.68328   0.217625  
         C         C         0.27966   0.26387   0.78516   0.210490  
         C         C         0.78004   0.76491   0.68784   0.206473  
         C         C         0.19684   0.68431   0.72564   0.075288  
         C         C         0.68994   0.19557   0.70163   0.059383  
         C         C         0.80388   0.31116   0.75367   0.092116  
         C         C         0.30536   0.80603   0.75514   0.064186  
         C         C         0.80929   0.70309   0.76255   0.060143  
         C         C         0.30412   0.19022   0.70944   0.059637  
         C         C         0.19121   0.30304   0.76156   0.067520  
         C         C         0.69088   0.80207   0.69831   0.084666  
         C         C         0.27911   0.77365   0.74361   -0.005947           
         C         C         0.77537   0.28088   0.73994   -0.010150           
         C         C         0.71712   0.22631   0.70810   -0.007983           
         C         C         0.22346   0.71549   0.72526   -0.015491           
         C         C         0.71952   0.77463   0.71171   -0.010265           
         C         C         0.21847   0.27301   0.74686   -0.005187           
         C         C         0.27674   0.22012   0.71895   -0.004958           
         C         C         0.78095   0.73061   0.75012   -0.002038           
         N         N         0.33734   0.79989   0.78011   -0.245173           
         N         N         0.82028   0.31211   0.65177   -0.251897           
         N         N         0.66294   0.20539   0.76281   -0.249517           
         N         N         0.17136   0.69458   0.79431   -0.224592           
         N         N         0.66754   0.80893   0.78013   -0.255235           
         N         N         0.16008   0.29329   0.71141   -0.253274           
         N         N         0.33528   0.20068   0.75849   -0.252751           
         N         N         0.83715   0.70427   0.70640   -0.264291           
         N         N         0.05315   0.49764   0.77047   -0.309476           
         N         N         0.55412   0.00208   0.73608   -0.287181           
         N         N         0.94548   0.50360   0.73755   -0.312425           
         N         N         0.44460   0.99846   0.73613   -0.286175           
         H         H         0.02991   0.49384   0.71552   0.255170  
         H         H         0.52879   0.00150   0.74212   0.242566  
         H         H         0.96241   0.49855   0.66656   0.270629  
         H         H         0.46978   0.99824   0.72608   0.242013  
         C         C         0.07253   0.46255   0.78204   0.157955  
         C         C         0.57417   0.96685   0.72815   0.148160  
         C         C         0.92725   0.54128   0.76628   0.157432  
         C         C         0.42533   0.03469   0.75471   0.149364  
         C         C         0.92636   0.47017   0.76020   0.134804  
         C         C         0.42542   0.96395   0.74802   0.155276  
         C         C         0.07489   0.53229   0.77660   0.149280  
         C         C         0.57405   0.03818   0.74727   0.155723  
         C         C         0.10670   0.47626   0.80374   -0.212434           
         C         C         0.60789   0.98105   0.73163   -0.210238           
         C         C         0.89742   0.53120   0.81606   -0.218390           
         C         C         0.39287   0.02251   0.77796   -0.208699           
         C         C         0.89717   0.48786   0.81451   -0.205574           
         C         C         0.39289   0.97914   0.77402   -0.214876           
         C         C         0.10815   0.51887   0.79958   -0.196922           
         C         C         0.60782   0.02501   0.74512   -0.209590           
         H         H         0.12796   0.45668   0.82000   0.130063  
         H         H         0.62972   0.96098   0.72744   0.133467  
         H         H         0.87768   0.55287   0.84991   0.132489  
         H         H         0.37183   0.04366   0.79580   0.132684  
         H         H         0.87789   0.47084   0.85008   0.134567  
         H         H         0.37185   0.96028   0.78994   0.132195  
         H         H         0.13086   0.53856   0.81237   0.132697  
         H         H         0.62957   0.04581   0.75132   0.134193  
         N         N         0.49880   0.93536   0.71555   -0.369397           
         N         N         0.99748   0.43481   0.74248   -0.350261           
         N         N         0.49973   0.06641   0.76657   -0.366906           
         N         N         0.00066   0.56322   0.73983   -0.357462           
         C         C         0.52914   0.91123   0.72267   0.144143  
         C         C         0.02556   0.40754   0.73886   0.160716  
         C         C         0.46975   0.09007   0.75019   0.146573  
         C         C         0.97273   0.59037   0.73157   0.167315  
         C         C         0.47061   0.90893   0.72927   0.151555  
         C         C         0.96688   0.40995   0.71484   0.150215  
         C         C         0.52827   0.09206   0.75521   0.151105  
         C         C         0.03146   0.58651   0.74330   0.145776  
         C         C         0.51884   0.87057   0.73817   -0.168003           
         C         C         0.01146   0.36503   0.69800   -0.170860           
         C         C         0.48048   0.12934   0.72449   -0.170886           
         C         C         0.98699   0.62976   0.71884   -0.174335           
         C         C         0.48439   0.86871   0.73833   -0.172789           
         C         C         0.97687   0.36646   0.67868   -0.168542           
         C         C         0.51510   0.13065   0.72878   -0.174592           
         C         C         0.02150   0.62740   0.72632   -0.157719           
         H         H         0.53661   0.84631   0.75135   0.136104  
         H         H         0.02673   0.33710   0.68293   0.136569  
         H         H         0.46310   0.15269   0.70006   0.137327  
         H         H         0.97238   0.65717   0.71017   0.137591  
         H         H         0.46943   0.84208   0.74855   0.135701  
         H         H         0.95940   0.33951   0.64357   0.133984  
         H         H         0.53086   0.15516   0.70868   0.139095  
         H         H         0.03931   0.65215   0.72223   0.138431  
         C         C         0.05954   0.42003   0.76265   -0.135047           
         C         C         0.56221   0.92496   0.72521   -0.113332           
         C         C         0.93896   0.58124   0.74302   -0.137481           
         C         C         0.43675   0.07629   0.75027   -0.115993           
         C         C         0.93459   0.42571   0.72641   -0.127217           
         C         C         0.43752   0.92168   0.74195   -0.118551           
         C         C         0.06446   0.57316   0.76093   -0.105002           
         C         C         0.56167   0.08001   0.75333   -0.123833           
         C         C         0.08535   0.38685   0.75624   0.080655  
         C         C         0.58956   0.89431   0.73599   0.067594  
         C         C         0.91372   0.61460   0.73781   0.088014  
         C         C         0.41000   0.10800   0.74868   0.081426  
         C         C         0.90535   0.39579   0.70796   0.067840  
         C         C         0.41137   0.89025   0.75337   0.079744  
         C         C         0.09261   0.60413   0.76753   0.062053  
         C         C         0.58740   0.11297   0.75171   0.082855  
         C         C         0.61167   0.90046   0.85732   -0.129766           
         C         C         0.11100   0.38804   0.86425   -0.128517           
         C         C         0.41112   0.14564   0.85402   -0.135092           
         C         C         0.88978   0.62459   0.83437   -0.139808           
         C         C         0.38092   0.88403   0.66485   -0.123998           
         C         C         0.87456   0.40243   0.63322   -0.115623           
         C         C         0.60697   0.10843   0.64086   -0.130611           
         C         C         0.09520   0.62468   0.66260   -0.128753           
         C         C         0.38348   0.10184   0.64161   -0.128907           
         C         C         0.91252   0.63857   0.63916   -0.139485           
         C         C         0.59402   0.85910   0.62793   -0.129010           
         C         C         0.08537   0.35348   0.63749   -0.132136           
         C         C         0.59232   0.14992   0.85962   -0.134366           
         C         C         0.11719   0.61436   0.88200   -0.126298           
         C         C         0.41622   0.86531   0.84869   -0.137693           
         C         C         0.90692   0.36010   0.76323   -0.127496           
         H         H         0.11109   0.41259   0.95942   0.106239  
         H         H         0.60846   0.92762   0.94226   0.112511  
         H         H         0.89155   0.60998   0.91933   0.096876  
         H         H         0.43150   0.15014   0.93735   0.106788  
         H         H         0.87292   0.42934   0.58765   0.114395  
         H         H         0.37743   0.90173   0.58694   0.109095  
         H         H         0.07669   0.61722   0.57223   0.104521  
         H         H         0.60191   0.08126   0.55316   0.099414  
         H         H         0.93018   0.63222   0.56134   0.108513  
         H         H         0.38352   0.07356   0.55753   0.103692  
         H         H         0.06663   0.35327   0.55133   0.109678  
         H         H         0.57701   0.85413   0.53384   0.110500  
         H         H         0.11538   0.59924   0.96514   0.105099  
         H         H         0.57723   0.15374   0.94549   0.110054  
         H         H         0.93003   0.35431   0.82375   0.112198  
         H         H         0.43940   0.86989   0.91881   0.105208  
         C         C         0.13588   0.35763   0.85231   -0.182912           
         C         C         0.63672   0.87164   0.87098   -0.167064           
         C         C         0.86488   0.65398   0.82847   -0.176036           
         C         C         0.38658   0.17602   0.85344   -0.146826           
         C         C         0.84664   0.37490   0.61401   -0.186648           
         C         C         0.35621   0.85470   0.67258   -0.178500           
         C         C         0.12132   0.65421   0.67132   -0.191113           
         C         C         0.63156   0.13879   0.64031   -0.179591           
         C         C         0.88817   0.66916   0.63528   -0.147172           
         C         C         0.35876   0.13201   0.64043   -0.180190           
         C         C         0.10933   0.32216   0.62680   -0.144920           
         C         C         0.62032   0.83126   0.63825   -0.187267           
         C         C         0.14299   0.64450   0.89340   -0.177577           
         C         C         0.61696   0.18036   0.85991   -0.144188           
         C         C         0.87887   0.33259   0.74551   -0.184699           
         C         C         0.39204   0.83500   0.85455   -0.153055           
         H         H         0.15495   0.35824   0.93796   0.103908  
         H         H         0.65285   0.87549   0.96654   0.122739  
         H         H         0.84750   0.66072   0.90714   0.109957  
         H         H         0.38704   0.20483   0.93589   0.131184  
         H         H         0.82302   0.38000   0.55582   0.115257  
         H         H         0.33362   0.84892   0.59906   0.117411  
         H         H         0.12316   0.67048   0.59097   0.112244  
         H         H         0.64530   0.13581   0.55102   0.105433  
         H         H         0.88732   0.68698   0.55774   0.126544  
         H         H         0.33944   0.12776   0.55345   0.104975  
         H         H         0.10935   0.29680   0.53399   0.129147  
         H         H         0.62450   0.80519   0.55149   0.111451  
         H         H         0.16076   0.65388   0.98560   0.123071  
         H         H         0.62202   0.20796   0.94589   0.127756  
         H         H         0.87986   0.30533   0.78948   0.115159  
         H         H         0.39604   0.81525   0.92652   0.126737  
         C         C         0.13578   0.32446   0.73228   0.195718  
         C         C         0.64186   0.83707   0.76076   0.199558  
         C         C         0.86270   0.67605   0.72513   0.193339  
         C         C         0.35948   0.16924   0.74830   0.197690  
         C         C         0.84837   0.34008   0.67227   0.203745  
         C         C         0.36111   0.83025   0.76962   0.196398  
         C         C         0.14571   0.66395   0.78596   0.203637  
         C         C         0.63769   0.17458   0.75239   0.194287  
         H         H         0.23973   0.81985   0.75446   0.141969  
         O         O         0.31641   0.71160   0.73383   -0.106172           
         H         H         0.20034   0.65154   0.66661   0.074360  
         C         C         0.66322   0.71872   0.75886   0.196862  
         C         C         0.63541   0.70736   0.69863   -0.470188           
         H         H         0.61147   0.69637   0.64297   0.250648  
         H         H         0.74198   0.33050   0.82726   0.146489  
         O         O         0.80740   0.21779   0.64326   -0.103553           
         H         H         0.69521   0.16289   0.64686   0.065322  
         C         C         0.16436   0.20512   0.72774   0.192474  
         C         C         0.14738   0.19887   0.81345   -0.474933           
         H         H         0.13265   0.19346   0.88955   0.242893  
         H         H         0.75112   0.17676   0.62399   0.139920  
         O         O         0.68742   0.29038   0.82307   -0.102149           
         H         H         0.80911   0.33395   0.85427   0.078555  
         C         C         0.33186   0.29214   0.76868   0.180884  
         C         C         0.35230   0.30269   0.70096   -0.477131           
         H         H         0.36887   0.31359   0.63821   0.248222  
         H         H         0.26224   0.66843   0.70387   0.141996  
         O         O         0.18641   0.77874   0.75096   -0.104871           
         H         H         0.29572   0.83653   0.74192   0.068658  
         C         C         0.83622   0.79091   0.73090   0.201139  
         C         C         0.86134   0.80337   0.80957   -0.470462           
         H         H         0.88490   0.80939   0.87159   0.251897  
         H         H         0.75079   0.81103   0.61630   0.135869  
         O         O         0.69236   0.72866   0.83510   -0.100533           
         H         H         0.80446   0.67939   0.81950   0.066320  
         C         C         0.33949   0.71816   0.65543   0.178935  
         C         C         0.36182   0.71721   0.58157   -0.438654           
         H         H         0.38098   0.71990   0.51699   0.245215  
         H         H         0.25568   0.32273   0.84952   0.139937  
         O         O         0.18365   0.20868   0.63305   -0.113179           
         H         H         0.29573   0.15707   0.66261   0.063446  
         C         C         0.83249   0.22400   0.74187   0.189437  
         C         C         0.85541   0.23007   0.83401   -0.461331           
         H         H         0.87439   0.23310   0.91795   0.260235  
         H         H         0.23950   0.17021   0.62136   0.139678  
         O         O         0.31090   0.28356   0.85213   -0.105624           
         H         H         0.19936   0.33581   0.81577   0.062745  
         C         C         0.65862   0.28861   0.74423   0.190520  
         C         C         0.63117   0.29171   0.68331   -0.466697           
         H         H         0.60685   0.29359   0.62912   0.248410  
         H         H         0.75016   0.69461   0.84779   0.138980  
         O         O         0.80872   0.78115   0.64402   -0.104592           
         H         H         0.69207   0.81918   0.61801   0.067301  
         C         C         0.15948   0.76258   0.66694   0.191721  
         C         C         0.13349   0.75337   0.59111   -0.444257           
         H         H         0.11023   0.74511   0.52686   0.252142  
         H         H         0.49524   0.94544   0.62762   0.262832  
         H         H         0.99823   0.46188   0.81931   0.259121  
         H         H         0.50168   0.05621   0.85446   0.274315  
         H         H         -0.00033  0.54545   0.80892   0.256977 

