
##########################################################################
#               Crystallographic Information Format file
#               Produced by PyCifRW module
#
#  This is a CIF file.  CIF has been adopted by the International
#  Union of Crystallography as the standard for data archiving and
#  transmission.
#
#  For information on this file format, follow the CIF links at
#  http://www.iucr.org
##########################################################################

data_image0

_cell_length_a                          18.7811
_cell_length_b                          17.2482
_cell_length_c                          10.2868
_cell_angle_alpha                       90.8062
_cell_angle_beta                        90.8248
_cell_angle_gamma                       112.499
_symmetry_space_group_name_H-M          'P 1'
_space_group_name_Hall                  'P 1'
loop_
  _atom_site_type_symbol
  _atom_site_label
  _atom_site_fract_x
  _atom_site_fract_y
  _atom_site_fract_z
  _atom_site_charge
         C         C         0.61417   0.51986   0.25219   -0.259064           
         C         C         0.49252   0.54645   0.26426   -0.249295           
         C         C         0.48607   0.39994   0.25608   -0.252903           
         C         C         0.57055   0.42895   0.24631   0.366737  
         C         C         0.57709   0.57936   0.26155   0.357939  
         C         C         0.44667   0.45715   0.26227   0.357019  
         C         C         0.06921   0.79506   0.24977   0.080944  
         C         C         0.19420   0.78066   0.24887   0.079513  
         C         C         0.18822   0.92070   0.25431   0.081552  
         C         C         0.10730   0.88304   0.25271   -0.188390           
         C         C         0.11352   0.74515   0.25057   -0.187706           
         C         C         0.22976   0.86828   0.24950   -0.188170           
         O         O         0.60338   0.37840   0.23348   -0.475525           
         O         O         0.61621   0.65810   0.26541   -0.475416           
         O         O         0.37255   0.42951   0.26617   -0.484717           
         H         H         0.07361   0.92217   0.25384   0.105715  
         H         H         0.08421   0.67737   0.25241   0.102852  
         H         H         0.29209   0.89698   0.24776   0.099834  
         C         C         0.98412   0.75326   0.24528   0.064798  
         C         C         0.24219   0.72963   0.24811   0.067640  
         C         C         0.23257   0.01255   0.26202   0.067343  
         C         C         0.94946   0.67188   0.19153   -0.193498           
         C         C         0.31866   0.76438   0.20687   -0.190245           
         C         C         0.20430   0.07281   0.22166   -0.186001           
         C         C         0.44752   0.31372   0.25833   0.121669  
         C         C         0.45951   0.60601   0.26570   0.110551  
         C         C         0.69381   0.54575   0.24579   0.120304  
         C         C         0.30876   0.04222   0.30986   -0.191412           
         C         C         0.21515   0.64643   0.28958   -0.185465           
         C         C         0.93517   0.79117   0.29176   -0.186722           
         C         C         0.85514   0.74964   0.28741   0.007194  
         C         C         0.26155   0.59962   0.29101   0.003753  
         C         C         0.35877   0.12612   0.31343   0.007881  
         N         N         0.37138   0.27308   0.27095   -0.232657           
         N         N         0.38321   0.58724   0.26159   -0.227590           
         N         N         0.74146   0.62659   0.24558   -0.229291           
         C         C         0.25018   0.15862   0.22691   0.002961  
         C         C         0.36923   0.72269   0.21102   0.007335  
         C         C         0.87018   0.62546   0.18859   0.005866  
         H         H         0.98647   0.64397   0.14792   0.103828  
         H         H         0.33997   0.82716   0.16828   0.105704  
         H         H         0.14585   0.05256   0.18241   0.108571  
         H         H         0.49939   0.67086   0.27051   0.094602  
         H         H         0.71627   0.49654   0.24091   0.096102  
         H         H         0.33031   0.99707   0.34800   0.103611  
         H         H         0.15644   0.61744   0.32331   0.107330  
         H         H         0.95974   0.85407   0.33462   0.108129  
         C         C         0.82231   0.66493   0.24040   0.102571  
         C         C         0.34012   0.63853   0.25517   0.100042  
         C         C         0.32826   0.18568   0.27102   0.099549  
         H         H         0.48361   0.27798   0.24814   0.092202  
         H         H         0.34327   0.31428   0.27219   0.256135  
         H         H         0.35368   0.52248   0.26335   0.252352  
         H         H         0.70922   0.66411   0.25466   0.255599  
         C         C         0.45139   0.76848   0.16451   0.083095  
         C         C         0.47587   0.86381   0.15102   -0.406873           
         C         C         0.46491   0.72947   0.03607   -0.413588           
         H         H         0.49052   0.76224   0.23996   0.061965  
         H         H         0.44585   0.88020   0.07001   0.121517  
         H         H         0.53781   0.89170   0.13148   0.127288  
         H         H         0.46612   0.89346   0.24061   0.117399  
         H         H         0.43347   0.74517   0.95666   0.119504  
         H         H         0.44441   0.66086   0.03845   0.122125  
         H         H         0.52647   0.75346   0.01344   0.131575  
         C         C         0.22859   0.50875   0.33459   0.080217  
         C         C         0.14096   0.46491   0.31243   -0.405247           
         C         C         0.25068   0.50275   0.47791   -0.408354           
         H         H         0.25387   0.47277   0.27482   0.065541  
         H         H         0.10855   0.48782   0.38058   0.119272  
         H         H         0.12322   0.39722   0.32760   0.121104  
         H         H         0.12354   0.47349   0.21300   0.119200  
         H         H         0.22810   0.53982   0.54034   0.119211  
         H         H         0.31337   0.52663   0.49389   0.127501  
         H         H         0.22683   0.43730   0.50940   0.120464  
         C         C         0.21804   0.22216   0.17846   0.082536  
         C         C         0.12971   0.19059   0.18193   -0.409555           
         C         C         0.24670   0.25058   0.04073   -0.409548           
         H         H         0.23969   0.27772   0.24388   0.062805  
         H         H         0.10187   0.14091   0.10845   0.121454  
         H         H         0.11127   0.24244   0.16099   0.122515  
         H         H         0.10789   0.16603   0.27762   0.119726  
         H         H         0.22561   0.19688   0.97221   0.119403  
         H         H         0.30984   0.27727   0.03749   0.124752  
         H         H         0.22616   0.29875   0.00717   0.120121  
         C         C         0.44095   0.14700   0.36570   0.085114  
         C         C         0.46234   0.07012   0.38452   -0.403529           
         C         C         0.45564   0.19815   0.49402   -0.413988           
         H         H         0.48131   0.18419   0.29300   0.067251  
         H         H         0.42957   0.02987   0.46253   0.118998  
         H         H         0.52365   0.09171   0.41239   0.129472  
         H         H         0.45333   0.03167   0.29506   0.115343  
         H         H         0.42161   0.15744   0.57042   0.116480  
         H         H         0.43861   0.25209   0.48788   0.120193  
         H         H         0.51687   0.22246   0.52346   0.138993  
         C         C         0.83994   0.53732   0.12681   0.087728  
         C         C         0.90263   0.50352   0.09469   -0.404024           
         C         C         0.79099   0.53205   0.00300   -0.414711           
         H         H         0.80396   0.49385   0.19848   0.062399  
         H         H         0.93951   0.53792   0.01567   0.121730  
         H         H         0.87449   0.43770   0.06203   0.125049  
         H         H         0.93958   0.50552   0.17945   0.116838  
         H         H         0.76700   0.46757   0.96321   0.130724  
         H         H         0.82747   0.57334   0.92968   0.116668  
         H         H         0.74255   0.55126   0.01938   0.122442  
         C         C         0.80356   0.79332   0.33634   0.080026  
         C         C         0.83941   0.88937   0.32776   -0.405239           
         C         C         0.77702   0.76656   0.47544   -0.407834           
         H         H         0.75183   0.77335   0.27277   0.067336  
         H         H         0.85912   0.90924   0.22924   0.118252  
         H         H         0.88831   0.91818   0.39599   0.116937  
         H         H         0.79606   0.91519   0.35240   0.124479  
         H         H         0.82537   0.79392   0.54507   0.116808  
         H         H         0.75525   0.69822   0.48483   0.121454  
         H         H         0.73047   0.78687   0.50293   0.128474  
         C         C         0.60915   0.52123   0.72047   -0.257721           
         C         C         0.48984   0.55174   0.74396   -0.248297           
         C         C         0.47916   0.40401   0.72998   -0.252550           
         C         C         0.56302   0.43071   0.71242   0.366662  
         C         C         0.57406   0.58225   0.73495   0.358600  
         C         C         0.44236   0.46300   0.74646   0.355403  
         C         C         0.06640   0.79855   0.75251   0.081718  
         C         C         0.19305   0.78800   0.75036   0.079431  
         C         C         0.18369   0.92635   0.75569   0.079439  
         C         C         0.10290   0.88672   0.75595   -0.188836           
         C         C         0.11252   0.75073   0.75299   -0.186431           
         C         C         0.22699   0.87577   0.74977   -0.186553           
         O         O         0.59336   0.37832   0.69481   -0.475065           
         O         O         0.61468   0.66059   0.74026   -0.476066           
         O         O         0.36892   0.43733   0.76103   -0.484613           
         H         H         0.06813   0.92462   0.75855   0.105518  
         H         H         0.08489   0.68284   0.75478   0.101640  
         H         H         0.28914   0.90624   0.74522   0.100298  
         C         C         0.98148   0.75429   0.74673   0.065348  
         C         C         0.24169   0.73780   0.74881   0.068231  
         C         C         0.22627   0.01864   0.76102   0.069056  
         C         C         0.94882   0.67235   0.69477   -0.193982           
         C         C         0.31817   0.77351   0.70878   -0.190020           
         C         C         0.19615   0.07705   0.71896   -0.187066           
         C         C         0.43847   0.31807   0.73225   0.118232  
         C         C         0.45874   0.61291   0.74736   0.108570  
         C         C         0.68884   0.54502   0.71766   0.118787  
         C         C         0.30252   0.05057   0.80920   -0.192424           
         C         C         0.21503   0.65418   0.78839   -0.185175           
         C         C         0.93054   0.79010   0.79137   -0.187195           
         C         C         0.85074   0.74693   0.78441   0.007094  
         C         C         0.26164   0.60774   0.78799   0.002812  
         C         C         0.35112   0.13498   0.80942   0.007981  
         N         N         0.36302   0.27947   0.75418   -0.229137           
         N         N         0.38286   0.59569   0.75369   -0.227207           
         N         N         0.73839   0.62528   0.72712   -0.228305           
         C         C         0.24122   0.16315   0.71894   0.003456  
         C         C         0.36923   0.73240   0.71101   0.004047  
         C         C         0.86984   0.62424   0.68896   0.010363  
         H         H         0.98707   0.64501   0.65427   0.104257  
         H         H         0.33937   0.83695   0.67298   0.105350  
         H         H         0.13687   0.05514   0.68296   0.108202  
         H         H         0.49971   0.67718   0.74411   0.094505  
         H         H         0.70946   0.49444   0.70943   0.097323  
         H         H         0.32468   0.00691   0.85121   0.104623  
         H         H         0.15645   0.62460   0.82230   0.106851  
         H         H         0.95363   0.85292   0.83453   0.106383  
         C         C         0.81960   0.66295   0.73310   0.100945  
         C         C         0.34012   0.64724   0.75065   0.101511  
         C         C         0.31976   0.19207   0.76010   0.097885  
         H         H         0.47208   0.28038   0.71409   0.095414  
         H         H         0.33647   0.32187   0.76374   0.257981  
         H         H         0.35292   0.53126   0.76185   0.252399  
         H         H         0.70711   0.66395   0.73549   0.255093  
         C         C         0.45155   0.78164   0.66733   0.085113  
         C         C         0.47474   0.87750   0.66974   -0.406864           
         C         C         0.46526   0.75160   0.53169   -0.410413           
         H         H         0.49121   0.77133   0.73782   0.063086  
         H         H         0.44541   0.89869   0.59317   0.118953  
         H         H         0.53689   0.90815   0.65365   0.126883  
         H         H         0.46277   0.90030   0.76393   0.117993  
         H         H         0.42846   0.76527   0.45919   0.121070  
         H         H         0.45157   0.68382   0.52667   0.122540  
         H         H         0.52571   0.78347   0.50424   0.129600  
         C         C         0.22942   0.51702   0.83271   0.077328  
         C         C         0.14125   0.47343   0.81967   -0.405218           
         C         C         0.25606   0.51143   0.97347   -0.407314           
         H         H         0.25215   0.48027   0.76945   0.066080  
         H         H         0.11140   0.49999   0.88725   0.119441  
         H         H         0.12373   0.40681   0.84298   0.122243  
         H         H         0.12029   0.47699   0.72059   0.119533  
         H         H         0.23233   0.54506   0.04037   0.119435  
         H         H         0.31903   0.53923   0.98503   0.124848  
         H         H         0.23666   0.44566   0.00288   0.120540  
         C         C         0.20752   0.22498   0.66954   0.086142  
         C         C         0.11979   0.19462   0.68385   -0.408539           
         C         C         0.23057   0.24741   0.52765   -0.409944           
         H         H         0.23228   0.28293   0.72921   0.061995  
         H         H         0.08844   0.14317   0.61499   0.120932  
         H         H         0.10099   0.24634   0.66397   0.121941  
         H         H         0.10226   0.17289   0.78261   0.120138  
         H         H         0.20819   0.19082   0.46509   0.119226  
         H         H         0.29339   0.27495   0.51780   0.127175  
         H         H         0.20738   0.29281   0.49134   0.118645  
         C         C         0.43216   0.16019   0.86886   0.084092  
         C         C         0.45600   0.08587   0.89521   -0.404894           
         C         C         0.44141   0.21299   0.99444   -0.413017           
         H         H         0.47414   0.19819   0.79931   0.064803  
         H         H         0.42157   0.04504   0.97125   0.121239  
         H         H         0.51639   0.11036   0.92911   0.129827  
         H         H         0.45137   0.04732   0.80707   0.115980  
         H         H         0.40868   0.17225   0.07174   0.114650  
         H         H         0.41971   0.26314   0.98298   0.119234  
         H         H         0.50226   0.24250   0.02539   0.135191  
         C         C         0.84303   0.53451   0.63422   0.084141  
         C         C         0.90735   0.50011   0.62419   -0.403700           
         C         C         0.80217   0.52569   0.50075   -0.413912           
         H         H         0.80235   0.49354   0.70342   0.063729  
         H         H         0.94917   0.53176   0.54944   0.121211  
         H         H         0.88155   0.43327   0.59619   0.124990  
         H         H         0.93884   0.50575   0.71701   0.116890  
         H         H         0.84351   0.56378   0.42997   0.118181  
         H         H         0.75405   0.54681   0.50262   0.121449  
         H         H         0.77901   0.45993   0.46648   0.132276  
         C         C         0.79806   0.78808   0.83789   0.076920  
         C         C         0.83545   0.88433   0.84914   -0.405258           
         C         C         0.76728   0.75136   0.97092   -0.407465           
         H         H         0.74852   0.77387   0.77039   0.070303  
         H         H         0.88125   0.90592   0.92455   0.118627  
         H         H         0.79161   0.90878   0.87693   0.124192  
         H         H         0.85996   0.91278   0.75689   0.118129  
         H         H         0.81544   0.76596   0.04095   0.115402  
         H         H         0.73723   0.68296   0.96569   0.123064  
         H         H         0.72660   0.77759   0.00840   0.127726 

