
##########################################################################
#               Crystallographic Information Format file
#               Produced by PyCifRW module
#
#  This is a CIF file.  CIF has been adopted by the International
#  Union of Crystallography as the standard for data archiving and
#  transmission.
#
#  For information on this file format, follow the CIF links at
#  http://www.iucr.org
##########################################################################

data_image0

_cell_length_a                          26.0311
_cell_length_b                          25.9219
_cell_length_c                          8.04877
_cell_angle_alpha                       93.1024
_cell_angle_beta                        109.504
_cell_angle_gamma                       119.431
_symmetry_space_group_name_H-M          'P 1'
_space_group_name_Hall                  'P 1'
loop_
  _atom_site_type_symbol
  _atom_site_label
  _atom_site_fract_x
  _atom_site_fract_y
  _atom_site_fract_z
  _atom_site_charge
         C         C         0.72793   0.36046   0.23215   0.082613  
         C         C         0.63981   0.36828   0.25417   0.070542  
         C         C         0.63416   0.27079   0.24327   0.079778  
         C         C         0.69443   0.29858   0.23413   -0.182860           
         C         C         0.69938   0.39398   0.23999   -0.180571           
         C         C         0.60776   0.30606   0.25446   -0.185494           
         C         C         0.27091   0.64202   0.26080   0.077910  
         C         C         0.36108   0.63324   0.27163   0.073590  
         C         C         0.37012   0.73179   0.27022   0.073426  
         C         C         0.30713   0.70393   0.26191   -0.178242           
         C         C         0.29823   0.60683   0.26177   -0.179443           
         C         C         0.39705   0.69585   0.28053   -0.179957           
         H         H         0.71423   0.27084   0.22273   0.100265  
         H         H         0.72553   0.44184   0.23907   0.098008  
         H         H         0.56250   0.28434   0.27037   0.099950  
         H         H         0.28461   0.73025   0.24938   0.101867  
         H         H         0.27121   0.55880   0.26127   0.101793  
         H         H         0.44608   0.71588   0.29026   0.103864  
         C         C         0.20559   0.61436   0.25757   0.071466  
         C         C         0.38895   0.59573   0.26704   0.074450  
         C         C         0.40611   0.79616   0.26148   0.065128  
         C         C         0.79258   0.39024   0.22873   0.058253  
         C         C         0.61221   0.40562   0.26995   0.055945  
         C         C         0.59850   0.20532   0.24124   0.058963  
         C         C         0.18824   0.65011   0.33400   -0.137636           
         C         C         0.35243   0.53845   0.13819   -0.139857           
         C         C         0.45936   0.81849   0.21487   -0.137321           
         C         C         0.83225   0.36691   0.29186   -0.126487           
         C         C         0.64566   0.46890   0.27965   -0.121519           
         C         C         0.53110   0.16748   0.13732   -0.123697           
         C         C         0.62994   0.17913   0.34418   -0.123509           
         C         C         0.81771   0.44352   0.16753   -0.124926           
         C         C         0.55109   0.37952   0.27524   -0.115623           
         C         C         0.38855   0.83756   0.29993   -0.127877           
         C         C         0.15853   0.55105   0.17781   -0.129133           
         C         C         0.45319   0.61726   0.38696   -0.135038           
         C         C         0.12697   0.62364   0.33395   -0.127611           
         C         C         0.37999   0.50487   0.12453   -0.122266           
         C         C         0.49405   0.87934   0.20953   -0.125060           
         C         C         0.89349   0.39481   0.29179   -0.154623           
         C         C         0.61965   0.50385   0.29302   -0.156398           
         C         C         0.49627   0.10630   0.13794   -0.156580           
         C         C         0.59558   0.11762   0.34428   -0.180512           
         C         C         0.87962   0.47267   0.17104   -0.178230           
         C         C         0.52399   0.41376   0.28475   -0.178507           
         C         C         0.42207   0.89786   0.29063   -0.109693           
         C         C         0.09772   0.52434   0.17937   -0.107575           
         C         C         0.48057   0.58356   0.37537   -0.098767           
         C         C         0.08110   0.56015   0.25934   0.051510  
         C         C         0.44464   0.52731   0.24135   0.044443  
         C         C         0.47568   0.91992   0.24591   0.047205  
         C         C         0.91870   0.44876   0.23390   0.200888  
         C         C         0.55761   0.47661   0.29181   0.202637  
         C         C         0.52813   0.08015   0.23951   0.203450  
         C         C         0.01863   0.53251   0.27052   0.066807  
         C         C         0.47340   0.49280   0.21880   0.068210  
         C         C         0.51108   0.98291   0.23292   0.070785  
         N         N         0.97975   0.47366   0.23152   -0.280421           
         N         N         0.53403   0.51374   0.31072   -0.280050           
         N         N         0.49056   0.01893   0.24029   -0.278356           
         H         H         0.22380   0.69888   0.39834   0.105064  
         H         H         0.30287   0.52141   0.04436   0.107208  
         H         H         0.47269   0.78744   0.17669   0.104994  
         H         H         0.81542   0.32723   0.34695   0.106457  
         H         H         0.69317   0.49171   0.27684   0.104285  
         H         H         0.50630   0.18665   0.05326   0.105063  
         H         H         0.68167   0.20804   0.42981   0.104337  
         H         H         0.78742   0.46129   0.11042   0.104440  
         H         H         0.52412   0.33149   0.27431   0.104163  
         H         H         0.34914   0.82274   0.34279   0.103016  
         H         H         0.16953   0.52308   0.10887   0.106591  
         H         H         0.48105   0.66044   0.49198   0.107630  
         H         H         0.11474   0.65175   0.39704   0.103428  
         H         H         0.35202   0.46158   0.01955   0.102730  
         H         H         0.53453   0.89521   0.17055   0.102469  
         H         H         0.92376   0.37649   0.34094   0.116461  
         H         H         0.64603   0.55250   0.29956   0.119288  
         H         H         0.44419   0.07727   0.05739   0.118167  
         H         H         0.61994   0.09871   0.43191   0.106837  
         H         H         0.89680   0.51213   0.11503   0.107452  
         H         H         0.47757   0.39266   0.29447   0.107906  
         H         H         0.40849   0.92959   0.32122   0.114911  
         H         H         0.06135   0.47567   0.11608   0.116990  
         H         H         0.52990   0.59959   0.46870   0.115822  
         H         H         0.00725   0.56446   0.31931   0.064157  
         H         H         0.44074   0.44803   0.11576   0.063146  
         H         H         0.55550   0.99766   0.21216   0.062958  
         C         C         0.72753   0.35857   0.73747   0.081316  
         C         C         0.63661   0.36474   0.74117   0.075481  
         C         C         0.63071   0.26736   0.73002   0.078679  
         C         C         0.69305   0.29627   0.73432   -0.186760           
         C         C         0.69884   0.39203   0.74435   -0.184976           
         C         C         0.60246   0.30160   0.72929   -0.185931           
         C         C         0.26924   0.63809   0.75403   0.078873  
         C         C         0.35885   0.62947   0.75840   0.074833  
         C         C         0.36776   0.72819   0.75988   0.074061  
         C         C         0.30543   0.70020   0.75694   -0.179089           
         C         C         0.29640   0.60290   0.75180   -0.180755           
         C         C         0.39412   0.69187   0.76437   -0.181411           
         H         H         0.71377   0.26902   0.72859   0.099854  
         H         H         0.72670   0.44114   0.75935   0.100442  
         H         H         0.55400   0.27870   0.72568   0.102982  
         H         H         0.28316   0.72656   0.75059   0.101132  
         H         H         0.26984   0.55492   0.75222   0.104142  
         H         H         0.44230   0.71129   0.76805   0.102328  
         C         C         0.20418   0.61024   0.75317   0.070810  
         C         C         0.38741   0.59235   0.75717   0.071521  
         C         C         0.40404   0.79321   0.75552   0.067691  
         C         C         0.79258   0.38840   0.73723   0.057257  
         C         C         0.60921   0.40206   0.75757   0.045834  
         C         C         0.59518   0.20201   0.72925   0.059668  
         C         C         0.18725   0.64566   0.83323   -0.136687           
         C         C         0.35207   0.53489   0.63003   -0.138914           
         C         C         0.46149   0.81835   0.72870   -0.136249           
         C         C         0.83217   0.36498   0.79977   -0.125313           
         C         C         0.63341   0.45983   0.71900   -0.122858           
         C         C         0.52842   0.16269   0.61845   -0.123994           
         C         C         0.62645   0.17785   0.84438   -0.125451           
         C         C         0.81730   0.44119   0.67374   -0.122144           
         C         C         0.55905   0.38203   0.81667   -0.122127           
         C         C         0.38326   0.83302   0.78109   -0.131840           
         C         C         0.15693   0.54702   0.67163   -0.130066           
         C         C         0.45112   0.61429   0.88250   -0.133276           
         C         C         0.12605   0.61897   0.83379   -0.126956           
         C         C         0.38016   0.50118   0.62540   -0.125265           
         C         C         0.49670   0.87980   0.72948   -0.125640           
         C         C         0.89274   0.39214   0.79555   -0.158462           
         C         C         0.60961   0.49613   0.74124   -0.165594           
         C         C         0.49402   0.10201   0.62430   -0.159217           
         C         C         0.59252   0.11688   0.84988   -0.179378           
         C         C         0.87867   0.46971   0.67368   -0.177630           
         C         C         0.53307   0.41698   0.83253   -0.188716           
         C         C         0.41762   0.89407   0.77908   -0.102684           
         C         C         0.09615   0.52013   0.67371   -0.103871           
         C         C         0.47914   0.58065   0.87876   -0.100762           
         C         C         0.07980   0.55567   0.75628   0.049416  
         C         C         0.44418   0.52384   0.74826   0.044443  
         C         C         0.47523   0.91871   0.75369   0.046136  
         C         C         0.91755   0.44555   0.73506   0.202247  
         C         C         0.55806   0.47465   0.79455   0.200695  
         C         C         0.52570   0.07792   0.73846   0.201059  
         C         C         0.01752   0.52830   0.76874   0.070863  
         C         C         0.47327   0.48890   0.73317   0.068845  
         C         C         0.51116   0.98219   0.74537   0.067445  
         N         N         0.97787   0.46954   0.72821   -0.282793           
         N         N         0.53480   0.51224   0.81358   -0.273366           
         N         N         0.48835   0.01673   0.74056   -0.277554           
         H         H         0.22316   0.69417   0.90066   0.104969  
         H         H         0.30324   0.51783   0.53025   0.107171  
         H         H         0.47846   0.78924   0.70283   0.105116  
         H         H         0.81582   0.32572   0.85671   0.105396  
         H         H         0.67047   0.47626   0.66631   0.098002  
         H         H         0.50385   0.18012   0.52451   0.104180  
         H         H         0.67766   0.20799   0.93466   0.103824  
         H         H         0.78695   0.45894   0.61751   0.102151  
         H         H         0.54151   0.33942   0.85764   0.102822  
         H         H         0.34020   0.81652   0.80734   0.105813  
         H         H         0.16792   0.51927   0.60165   0.105702  
         H         H         0.47793   0.65770   0.98578   0.107290  
         H         H         0.11435   0.64674   0.90092   0.103567  
         H         H         0.35325   0.45770   0.52205   0.102608  
         H         H         0.54054   0.89764   0.70606   0.104980  
         H         H         0.92285   0.37363   0.84367   0.116359  
         H         H         0.62809   0.54013   0.70826   0.119573  
         H         H         0.44255   0.07159   0.53747   0.120074  
         H         H         0.61672   0.09965   0.94609   0.105430  
         H         H         0.89550   0.50881   0.61619   0.106518  
         H         H         0.49572   0.40138   0.88418   0.104922  
         H         H         0.40145   0.92443   0.80014   0.114013  
         H         H         0.05975   0.47152   0.60952   0.113533  
         H         H         0.52811   0.59720   0.97640   0.116011  
         H         H         0.00713   0.56051   0.82146   0.063638  
         H         H         0.43995   0.44181   0.64280   0.064772  
         H         H         0.55787   0.99857   0.73711   0.063366 

