
##########################################################################
#               Crystallographic Information Format file
#               Produced by PyCifRW module
#
#  This is a CIF file.  CIF has been adopted by the International
#  Union of Crystallography as the standard for data archiving and
#  transmission.
#
#  For information on this file format, follow the CIF links at
#  http://www.iucr.org
##########################################################################

data_image0

_cell_length_a                          26.0937
_cell_length_b                          26.1319
_cell_length_c                          10.3195
_cell_angle_alpha                       90.0894
_cell_angle_beta                        91.7984
_cell_angle_gamma                       120.13
_symmetry_space_group_name_H-M          'P 1'
_space_group_name_Hall                  'P 1'
loop_
  _atom_site_type_symbol
  _atom_site_label
  _atom_site_fract_x
  _atom_site_fract_y
  _atom_site_fract_z
  _atom_site_charge
         C         C         0.73104   0.36671   0.28510   0.080423  
         C         C         0.63559   0.36424   0.28165   0.080644  
         C         C         0.63786   0.27145   0.28464   0.079194  
         C         C         0.70009   0.30459   0.28667   -0.184989           
         C         C         0.69777   0.39543   0.28406   -0.184806           
         C         C         0.60654   0.30218   0.28265   -0.185065           
         C         C         0.27286   0.64294   0.24437   0.077969  
         C         C         0.35881   0.62923   0.24253   0.075137  
         C         C         0.37276   0.72903   0.24273   0.077096  
         C         C         0.31097   0.70440   0.24305   -0.192441           
         C         C         0.29724   0.60575   0.24424   -0.191889           
         C         C         0.39612   0.69097   0.24145   -0.191975           
         H         H         0.72485   0.28140   0.28708   0.100241  
         H         H         0.72085   0.44336   0.28222   0.099299  
         H         H         0.55846   0.27697   0.27891   0.100610  
         H         H         0.29237   0.73348   0.24462   0.112711  
         H         H         0.26793   0.55805   0.24732   0.113190  
         H         H         0.44394   0.70956   0.24149   0.112436  
         C         C         0.20791   0.61743   0.25127   0.067269  
         C         C         0.38448   0.58996   0.24663   0.065903  
         C         C         0.41195   0.79412   0.24891   0.068502  
         C         C         0.79661   0.40114   0.27674   0.064699  
         C         C         0.60183   0.39598   0.27134   0.066322  
         C         C         0.60575   0.20581   0.27703   0.065676  
         C         C         0.18455   0.63574   0.35025   -0.141272           
         C         C         0.36495   0.54382   0.33582   -0.139195           
         C         C         0.45934   0.82068   0.34093   -0.139447           
         C         C         0.83182   0.37489   0.29431   -0.187590           
         C         C         0.62941   0.45764   0.28809   -0.186279           
         C         C         0.54499   0.17179   0.30022   -0.187494           
         C         C         0.63454   0.17512   0.24035   -0.192287           
         C         C         0.82580   0.46118   0.24367   -0.191755           
         C         C         0.54089   0.36553   0.23875   -0.191078           
         C         C         0.40097   0.83084   0.16654   -0.140077           
         C         C         0.16842   0.57316   0.16219   -0.140596           
         C         C         0.43032   0.59911   0.16420   -0.139099           
         C         C         0.12339   0.60939   0.36183   -0.125650           
         C         C         0.39232   0.50985   0.34646   -0.126415           
         C         C         0.49392   0.88211   0.35191   -0.127109           
         C         C         0.89265   0.40559   0.27469   0.014888  
         C         C         0.59890   0.48826   0.26873   0.011557  
         C         C         0.51327   0.11046   0.28239   0.015251  
         C         C         0.60566   0.11359   0.22703   0.003012  
         C         C         0.88693   0.49482   0.22883   0.003242  
         C         C         0.50745   0.39346   0.22422   0.001208  
         C         C         0.43583   0.89209   0.17629   -0.107677           
         C         C         0.10741   0.54745   0.17253   -0.109215           
         C         C         0.45687   0.56447   0.17291   -0.111756           
         C         C         0.08404   0.56479   0.27364   0.045146  
         C         C         0.43904   0.52007   0.26637   0.047526  
         C         C         0.48253   0.91858   0.27023   0.049795  
         C         C         0.92064   0.46617   0.24312   0.091846  
         C         C         0.53727   0.45603   0.23775   0.093632  
         C         C         0.54371   0.08080   0.24629   0.091627  
         C         C         0.02021   0.53571   0.29354   0.068569  
         C         C         0.46903   0.48591   0.28654   0.066307  
         C         C         0.51784   0.98277   0.28921   0.063850  
         N         N         0.98155   0.49461   0.21698   -0.252333           
         N         N         0.50887   0.48901   0.21142   -0.254828           
         N         N         0.50909   0.01928   0.22194   -0.249008           
         H         H         0.21468   0.66874   0.42156   0.113521  
         H         H         0.32990   0.53641   0.40073   0.113813  
         H         H         0.46727   0.79293   0.40745   0.111579  
         H         H         0.81140   0.32897   0.32297   0.103892  
         H         H         0.67618   0.48298   0.31654   0.103182  
         H         H         0.52141   0.19354   0.33307   0.105202  
         H         H         0.68122   0.20016   0.21900   0.102025  
         H         H         0.79981   0.48255   0.22635   0.101538  
         H         H         0.51854   0.31809   0.22147   0.102030  
         H         H         0.36496   0.81052   0.09373   0.111790  
         H         H         0.18620   0.55962   0.08371   0.113159  
         H         H         0.44406   0.63312   0.09129   0.112229  
         H         H         0.10572   0.62200   0.44225   0.110432  
         H         H         0.37839   0.47580   0.41950   0.111335  
         H         H         0.52910   0.90228   0.42682   0.110354  
         H         H         0.42757   0.92070   0.11318   0.115919  
         H         H         0.07677   0.51307   0.10428   0.115006  
         H         H         0.49192   0.57118   0.10862   0.117028  
         H         H         0.00727   0.54964   0.38137   0.068133  
         H         H         0.45672   0.45848   0.37323   0.069174  
         H         H         0.55152   0.99815   0.36839   0.064808  
         C         C         0.62965   0.55504   0.28651   0.083620  
         C         C         0.69570   0.58711   0.25520   -0.409366           
         C         C         0.62180   0.57146   0.42504   -0.403410           
         H         H         0.60670   0.56993   0.21853   0.063333  
         H         H         0.72229   0.57938   0.32877   0.116115  
         H         H         0.71344   0.63512   0.25299   0.118274  
         H         H         0.70293   0.57288   0.16067   0.116574  
         H         H         0.64175   0.55473   0.49603   0.121279  
         H         H         0.57486   0.55200   0.44752   0.117083  
         H         H         0.64345   0.61968   0.43878   0.116801  
         C         C         0.44171   0.35755   0.18547   0.090372  
         C         C         0.41342   0.29093   0.20968   -0.409187           
         C         C         0.43193   0.36862   0.04293   -0.413708           
         H         H         0.41839   0.37369   0.24504   0.053056  
         H         H         0.42973   0.26956   0.14405   0.122871  
         H         H         0.36519   0.26915   0.19268   0.119669  
         H         H         0.42200   0.28199   0.30962   0.118422  
         H         H         0.45673   0.35603   0.97876   0.127670  
         H         H         0.44808   0.41589   0.02975   0.109894  
         H         H         0.38479   0.34356   0.01262   0.118684  
         C         C         0.44746   0.07462   0.30719   0.084265  
         C         C         0.41392   0.10751   0.27367   -0.408550           
         C         C         0.43758   0.05406   0.44866   -0.404425           
         H         H         0.42964   0.03499   0.24392   0.062414  
         H         H         0.42639   0.14496   0.34079   0.115302  
         H         H         0.36596   0.07766   0.28083   0.117365  
         H         H         0.42235   0.12467   0.17482   0.116897  
         H         H         0.45656   0.09240   0.51568   0.120947  
         H         H         0.45897   0.02820   0.47376   0.115223  
         H         H         0.39005   0.02686   0.46661   0.115832  
         C         C         0.63936   0.08346   0.18265   0.091298  
         C         C         0.70699   0.12125   0.20254   -0.408440           
         C         C         0.62233   0.06331   0.04004   -0.413982           
         H         H         0.62516   0.04365   0.24050   0.051973  
         H         H         0.72598   0.15977   0.13920   0.122749  
         H         H         0.72759   0.09485   0.17872   0.118857  
         H         H         0.72011   0.13740   0.30327   0.118337  
         H         H         0.63557   0.10141   0.97691   0.125983  
         H         H         0.57409   0.03475   0.02777   0.116028  
         H         H         0.64370   0.03869   0.00762   0.113240  
         C         C         0.93002   0.37627   0.29028   0.082502  
         C         C         0.89563   0.30969   0.25726   -0.408933           
         C         C         0.95856   0.38769   0.42805   -0.404298           
         H         H         0.96586   0.39821   0.22156   0.063615  
         H         H         0.86311   0.28445   0.33056   0.115364  
         H         H         0.92609   0.29226   0.25336   0.118610  
         H         H         0.87161   0.30049   0.16298   0.116945  
         H         H         0.92402   0.36824   0.49985   0.123515  
         H         H         0.98547   0.43517   0.45162   0.113876  
         H         H         0.98693   0.36795   0.43945   0.116570  
         C         C         0.91573   0.55914   0.18812   0.091525  
         C         C         0.87758   0.58771   0.20940   -0.406979           
         C         C         0.93304   0.56433   0.04561   -0.415396           
         H         H         0.95675   0.58442   0.24766   0.053259  
         H         H         0.83823   0.56859   0.14345   0.122017  
         H         H         0.90321   0.63524   0.18991   0.118746  
         H         H         0.86254   0.58258   0.30923   0.117204  
         H         H         0.89370   0.53848   0.98164   0.126522  
         H         H         0.96296   0.54682   0.03223   0.112298  
         H         H         0.95527   0.61061   0.01501   0.116604  
         C         C         0.72841   0.36685   0.76421   0.079134  
         C         C         0.63188   0.36213   0.75791   0.080939  
         C         C         0.63631   0.27055   0.76593   0.078697  
         C         C         0.69840   0.30482   0.76868   -0.184848           
         C         C         0.69411   0.39446   0.75839   -0.184281           
         C         C         0.60388   0.30017   0.76182   -0.183815           
         C         C         0.27112   0.64296   0.73801   0.076088  
         C         C         0.35636   0.62810   0.73265   0.077021  
         C         C         0.37136   0.72809   0.72668   0.076646  
         C         C         0.30981   0.70429   0.73271   -0.192423           
         C         C         0.29504   0.60530   0.73844   -0.191786           
         C         C         0.39401   0.68946   0.72485   -0.191118           
         H         H         0.72390   0.28244   0.77306   0.099767  
         H         H         0.71622   0.44227   0.75216   0.100112  
         H         H         0.55580   0.27439   0.76005   0.100698  
         H         H         0.29199   0.73403   0.73548   0.111335  
         H         H         0.26562   0.55776   0.74543   0.113069  
         H         H         0.44163   0.70738   0.72033   0.111943  
         C         C         0.20637   0.61795   0.74802   0.066365  
         C         C         0.38204   0.58893   0.74177   0.067217  
         C         C         0.41184   0.79287   0.73021   0.066654  
         C         C         0.79411   0.40158   0.76074   0.068976  
         C         C         0.59703   0.39283   0.75065   0.063291  
         C         C         0.60593   0.20495   0.76252   0.068328  
         C         C         0.18384   0.64112   0.83868   -0.143078           
         C         C         0.36733   0.54904   0.84400   -0.142509           
         C         C         0.46263   0.81799   0.81349   -0.141007           
         C         C         0.82871   0.37461   0.77724   -0.188295           
         C         C         0.62409   0.45409   0.77358   -0.188057           
         C         C         0.54553   0.16982   0.78819   -0.188888           
         C         C         0.63622   0.17522   0.73004   -0.192541           
         C         C         0.82446   0.46249   0.73591   -0.194204           
         C         C         0.53583   0.36219   0.72019   -0.192015           
         C         C         0.39946   0.83078   0.65559   -0.137528           
         C         C         0.16593   0.56914   0.66944   -0.137767           
         C         C         0.42343   0.59267   0.65230   -0.139900           
         C         C         0.12284   0.61539   0.85249   -0.127155           
         C         C         0.39420   0.51470   0.85799   -0.123747           
         C         C         0.49874   0.87918   0.82481   -0.129062           
         C         C         0.88999   0.40531   0.76515   0.014174  
         C         C         0.59302   0.48445   0.76241   0.011518  
         C         C         0.51539   0.10837   0.77477   0.016192  
         C         C         0.60899   0.11366   0.72108   0.002723  
         C         C         0.88597   0.49606   0.72743   0.007116  
         C         C         0.50190   0.38994   0.71327   0.001196  
         C         C         0.43582   0.89186   0.66579   -0.106333           
         C         C         0.10515   0.54422   0.68135   -0.109756           
         C         C         0.44952   0.55776   0.66497   -0.108920           
         C         C         0.08266   0.56658   0.77423   0.048892  
         C         C         0.43572   0.51875   0.76897   0.045767  
         C         C         0.48559   0.91693   0.75224   0.048257  
         C         C         0.91926   0.46683   0.74141   0.094690  
         C         C         0.53142   0.45220   0.73176   0.093781  
         C         C         0.54702   0.07976   0.73910   0.095155  
         C         C         0.01888   0.53849   0.79397   0.063308  
         C         C         0.46516   0.48407   0.78902   0.070728  
         C         C         0.52221   0.98079   0.77486   0.062144  
         N         N         0.98059   0.49496   0.72187   -0.250944           
         N         N         0.50249   0.48492   0.70943   -0.254139           
         N         N         0.51302   0.01841   0.71364   -0.251037           
         H         H         0.21450   0.67797   0.90192   0.114375  
         H         H         0.33667   0.54706   0.91559   0.114941  
         H         H         0.47208   0.78923   0.87324   0.114319  
         H         H         0.80756   0.32797   0.79973   0.103390  
         H         H         0.67095   0.47924   0.80112   0.103691  
         H         H         0.52125   0.19096   0.82020   0.105211  
         H         H         0.68288   0.20103   0.70904   0.101434  
         H         H         0.79925   0.48483   0.72121   0.102033  
         H         H         0.51363   0.31500   0.69925   0.102377  
         H         H         0.36118   0.81156   0.58828   0.112449  
         H         H         0.18284   0.55166   0.59703   0.112559  
         H         H         0.43410   0.62256   0.57136   0.111812  
         H         H         0.10599   0.63227   0.92653   0.110988  
         H         H         0.38412   0.48554   0.94027   0.110658  
         H         H         0.53683   0.89838   0.89283   0.110314  
         H         H         0.42630   0.92131   0.60878   0.115177  
         H         H         0.07373   0.50687   0.62024   0.111810  
         H         H         0.48113   0.56003   0.59564   0.111840  
         H         H         0.00600   0.55569   0.87639   0.068459  
         H         H         0.45469   0.45847   0.87834   0.068112  
         H         H         0.55655   0.99422   0.85237   0.065713  
         C         C         0.62274   0.55058   0.78894   0.084368  
         C         C         0.68957   0.58432   0.76591   -0.408473           
         C         C         0.61161   0.56304   0.92830   -0.404337           
         H         H         0.60095   0.56693   0.72135   0.063864  
         H         H         0.71429   0.57371   0.83875   0.116699  
         H         H         0.70688   0.63221   0.77322   0.118862  
         H         H         0.69965   0.57433   0.66977   0.115056  
         H         H         0.63296   0.54743   -0.00152  0.123739  
         H         H         0.56430   0.54025   0.94911   0.112969  
         H         H         0.63003   0.61072   0.94543   0.116237  
         C         C         0.43551   0.35479   0.68084   0.092620  
         C         C         0.40748   0.28785   0.69943   -0.409186           
         C         C         0.42191   0.36803   0.54277   -0.415496           
         H         H         0.41417   0.37026   0.74832   0.054344  
         H         H         0.42271   0.26753   0.62836   0.121764  
         H         H         0.35907   0.26622   0.68631   0.118876  
         H         H         0.41759   0.27757   0.79681   0.119308  
         H         H         0.44558   0.35732   0.47134   0.125374  
         H         H         0.43650   0.41526   0.53518   0.109274  
         H         H         0.37420   0.34237   0.51792   0.119633  
         C         C         0.45046   0.07088   0.80629   0.083309  
         C         C         0.41524   0.10328   0.79077   -0.408041           
         C         C         0.44542   0.04702   0.94467   -0.405362           
         H         H         0.43136   0.03282   0.73801   0.063370  
         H         H         0.42898   0.13845   0.86488   0.116879  
         H         H         0.36774   0.07236   0.80210   0.117974  
         H         H         0.42075   0.12345   0.69513   0.115552  
         H         H         0.46668   0.08378   0.01572   0.122922  
         H         H         0.46741   0.02081   0.95639   0.112813  
         H         H         0.39885   0.01901   0.96966   0.116524  
         C         C         0.64491   0.08480   0.68409   0.091139  
         C         C         0.71189   0.12416   0.71121   -0.408690           
         C         C         0.63120   0.06396   0.54163   -0.412984           
         H         H         0.63049   0.04544   0.74343   0.049671  
         H         H         0.73134   0.16289   0.64861   0.122025  
         H         H         0.73446   0.09916   0.69212   0.119315  
         H         H         0.72197   0.14005   0.81253   0.119952  
         H         H         0.64355   0.10151   0.47738   0.126471  
         H         H         0.58343   0.03360   0.52679   0.112343  
         H         H         0.65482   0.04102   0.51318   0.116661  
         C         C         0.92600   0.37456   0.78214   0.082328  
         C         C         0.89154   0.30881   0.74082   -0.410117           
         C         C         0.95058   0.38173   0.92292   -0.401208           
         H         H         0.96405   0.39786   0.71940   0.062013  
         H         H         0.85715   0.28199   0.80940   0.116104  
         H         H         0.92163   0.29093   0.73743   0.118811  
         H         H         0.86979   0.30219   0.64442   0.116660  
         H         H         0.91402   0.36047   0.98978   0.122228  
         H         H         0.97736   0.42846   0.95325   0.116140  
         H         H         0.97810   0.36102   0.93450   0.116024  
         C         C         0.91580   0.56139   0.69419   0.089524  
         C         C         0.87733   0.58974   0.71435   -0.408120           
         C         C         0.93690   0.57021   0.55413   -0.413934           
         H         H         0.95510   0.58527   0.75919   0.051732  
         H         H         0.83936   0.57221   0.64468   0.121880  
         H         H         0.90379   0.63764   0.69966   0.119032  
         H         H         0.86018   0.58286   0.81250   0.118821  
         H         H         0.89922   0.54556   0.48529   0.125891  
         H         H         0.96760   0.55356   0.54179   0.110705  
         H         H         0.95953   0.61719   0.52901   0.117186 

