
##########################################################################
#               Crystallographic Information Format file
#               Produced by PyCifRW module
#
#  This is a CIF file.  CIF has been adopted by the International
#  Union of Crystallography as the standard for data archiving and
#  transmission.
#
#  For information on this file format, follow the CIF links at
#  http://www.iucr.org
##########################################################################

data_image0

_cell_length_a                          18.8055
_cell_length_b                          17.5111
_cell_length_c                          8.2638
_cell_angle_alpha                       89.9434
_cell_angle_beta                        123.42
_cell_angle_gamma                       114.421
_symmetry_space_group_name_H-M          'P 1'
_space_group_name_Hall                  'P 1'
loop_
  _atom_site_type_symbol
  _atom_site_label
  _atom_site_fract_x
  _atom_site_fract_y
  _atom_site_fract_z
  _atom_site_charge
         C         C         0.60811   0.53327   0.23043   -0.257911           
         C         C         0.48408   0.55165   0.23410   -0.246495           
         C         C         0.48233   0.40882   0.23923   -0.251881           
         C         C         0.56828   0.44292   0.23977   0.360267  
         C         C         0.56967   0.58955   0.23383   0.356109  
         C         C         0.43850   0.46107   0.23127   0.353706  
         C         C         0.07684   0.79899   0.25149   0.087238  
         C         C         0.21006   0.78874   0.28237   0.075226  
         C         C         0.20947   0.92864   0.28458   0.074958  
         C         C         0.12013   0.88720   0.25654   -0.188393           
         C         C         0.12194   0.75059   0.25945   -0.186151           
         C         C         0.25512   0.87912   0.30486   -0.195773           
         O         O         0.60589   0.39687   0.24854   -0.480876           
         O         O         0.60879   0.66924   0.23776   -0.485479           
         O         O         0.36190   0.42848   0.22643   -0.489725           
         H         H         0.08305   0.92431   0.23490   0.098094  
         H         H         0.08752   0.68141   0.24683   0.097636  
         H         H         0.32622   0.91151   0.33523   0.100509  
         C         C         0.98600   0.75784   0.23599   0.048297  
         C         C         0.25295   0.73532   0.27647   0.046901  
         C         C         0.25279   0.02090   0.28389   0.046526  
         C         C         0.93677   0.66746   0.21119   -0.105441           
         C         C         0.33089   0.77009   0.26234   -0.113281           
         C         C         0.22416   0.07928   0.31232   -0.120794           
         C         C         0.44787   0.32427   0.25422   0.133944  
         C         C         0.45050   0.60739   0.24401   0.125286  
         C         C         0.68729   0.56326   0.22465   0.121052  
         C         C         0.32332   0.05367   0.24802   -0.113462           
         C         C         0.21738   0.64735   0.27939   -0.117519           
         C         C         0.94498   0.80702   0.24818   -0.115774           
         C         C         0.86108   0.76889   0.23851   -0.182416           
         C         C         0.25719   0.59757   0.26898   -0.187041           
         C         C         0.36414   0.13936   0.24283   -0.181420           
         N         N         0.37088   0.28210   0.25713   -0.237415           
         N         N         0.37347   0.58209   0.24660   -0.235630           
         N         N         0.73372   0.64445   0.22081   -0.230613           
         C         C         0.26291   0.16491   0.30305   -0.188208           
         C         C         0.37259   0.72185   0.25563   -0.183165           
         C         C         0.85355   0.62841   0.20367   -0.187485           
         H         H         0.96310   0.62547   0.19478   0.104439  
         H         H         0.35893   0.83631   0.25136   0.106001  
         H         H         0.17235   0.05849   0.34723   0.098226  
         H         H         0.48993   0.67524   0.25190   0.101915  
         H         H         0.71212   0.51712   0.22394   0.101199  
         H         H         0.34467   0.01035   0.21560   0.104539  
         H         H         0.15852   0.61687   0.29376   0.103998  
         H         H         0.97970   0.87711   0.26774   0.104369  
         C         C         0.81515   0.67922   0.22001   0.218676  
         C         C         0.33592   0.63435   0.25823   0.208273  
         C         C         0.33387   0.19620   0.26896   0.208589  
         H         H         0.83122   0.80850   0.24941   0.123600  
         H         H         0.22830   0.52990   0.27223   0.123606  
         H         H         0.41627   0.16038   0.20912   0.114272  
         H         H         0.23988   0.20867   0.32696   0.121281  
         H         H         0.43173   0.75191   0.24217   0.118217  
         H         H         0.81825   0.55827   0.18318   0.126095  
         H         H         0.48758   0.29098   0.26657   0.103814  
         H         H         0.34070   0.32068   0.25328   0.277078  
         H         H         0.34330   0.51625   0.24239   0.270248  
         H         H         0.70434   0.68263   0.22638   0.273725  
         C         C         0.60028   0.52512   0.72808   -0.256061           
         C         C         0.47740   0.54440   0.73465   -0.244176           
         C         C         0.47599   0.40156   0.74190   -0.248011           
         C         C         0.56049   0.43483   0.73735   0.359018  
         C         C         0.56248   0.58178   0.73253   0.357508  
         C         C         0.43181   0.45382   0.73223   0.353833  
         C         C         0.07074   0.79228   0.75755   0.084702  
         C         C         0.19699   0.77943   0.76125   0.071491  
         C         C         0.19552   0.91898   0.76236   0.068352  
         C         C         0.11368   0.88057   0.76246   -0.180626           
         C         C         0.11556   0.74389   0.76316   -0.181800           
         C         C         0.23462   0.86673   0.75738   -0.189577           
         O         O         0.59658   0.38803   0.74139   -0.472500           
         O         O         0.60138   0.66127   0.73493   -0.481900           
         O         O         0.35440   0.42090   0.72447   -0.488536           
         H         H         0.08305   0.92043   0.76700   0.096645  
         H         H         0.08642   0.67706   0.76967   0.097265  
         H         H         0.29307   0.89383   0.74179   0.097039  
         C         C         0.97994   0.75088   0.74268   0.054785  
         C         C         0.24152   0.72693   0.75940   0.050367  
         C         C         0.23998   0.01175   0.76544   0.050973  
         C         C         0.93060   0.66023   0.71589   -0.111180           
         C         C         0.32946   0.76585   0.77991   -0.111667           
         C         C         0.19264   0.06152   0.72764   -0.120553           
         C         C         0.44280   0.31770   0.76059   0.129223  
         C         C         0.44438   0.60070   0.74441   0.122892  
         C         C         0.67837   0.55448   0.71879   0.121116  
         C         C         0.33436   0.05568   0.81441   -0.108226           
         C         C         0.19988   0.63646   0.74043   -0.117739           
         C         C         0.93679   0.79919   0.74811   -0.116252           
         C         C         0.85142   0.76023   0.73283   -0.176856           
         C         C         0.24282   0.58809   0.74021   -0.188371           
         C         C         0.37871   0.14308   0.82182   -0.180079           
         N         N         0.36703   0.27655   0.76802   -0.241261           
         N         N         0.36740   0.57599   0.74712   -0.237781           
         N         N         0.72368   0.63521   0.71210   -0.229482           
         C         C         0.23618   0.14929   0.73528   -0.185993           
         C         C         0.37317   0.71847   0.77952   -0.182403           
         C         C         0.84561   0.62026   0.70195   -0.186756           
         H         H         0.95807   0.61870   0.70273   0.105539  
         H         H         0.36561   0.83543   0.79627   0.107261  
         H         H         0.11995   0.03133   0.69036   0.110742  
         H         H         0.48390   0.66826   0.75078   0.103112  
         H         H         0.70302   0.50834   0.71694   0.101938  
         H         H         0.37563   0.02138   0.85115   0.107662  
         H         H         0.13257   0.60247   0.72597   0.110617  
         H         H         0.97057   0.86922   0.76636   0.104010  
         C         C         0.80594   0.67054   0.71437   0.216364  
         C         C         0.32962   0.62819   0.75765   0.209075  
         C         C         0.32908   0.19075   0.77844   0.210121  
         H         H         0.82008   0.79928   0.73894   0.126253  
         H         H         0.20902   0.51834   0.72560   0.124332  
         H         H         0.45203   0.17404   0.86218   0.129979  
         H         H         0.19761   0.18601   0.70393   0.123982  
         H         H         0.44037   0.75197   0.79352   0.124335  
         H         H         0.81004   0.54989   0.67928   0.128180  
         H         H         0.48131   0.28380   0.76840   0.104658  
         H         H         0.33467   0.31425   0.75543   0.273090  
         H         H         0.33598   0.50995   0.74011   0.270611  
         H         H         0.69429   0.67328   0.71863   0.275155 

