
##########################################################################
#               Crystallographic Information Format file
#               Produced by PyCifRW module
#
#  This is a CIF file.  CIF has been adopted by the International
#  Union of Crystallography as the standard for data archiving and
#  transmission.
#
#  For information on this file format, follow the CIF links at
#  http://www.iucr.org
##########################################################################

data_image0

_cell_length_a                          21.4902
_cell_length_b                          21.489
_cell_length_c                          10.6577
_cell_angle_alpha                       90.1854
_cell_angle_beta                        90.6987
_cell_angle_gamma                       119.961
_symmetry_space_group_name_H-M          'P 1'
_space_group_name_Hall                  'P 1'
loop_
  _atom_site_type_symbol
  _atom_site_label
  _atom_site_fract_x
  _atom_site_fract_y
  _atom_site_fract_z
  _atom_site_charge
         C         C         0.06309   0.06960   0.33729   -0.017457           
         C         C         0.93164   0.99474   0.33295   -0.019327           
         C         C         0.00657   0.93832   0.33787   -0.017456           
         C         C         0.93787   0.93220   0.33548   -0.019944           
         C         C         0.06924   0.00694   0.33869   -0.017743           
         C         C         0.99433   0.06349   0.33397   -0.019001           
         C         C         0.05184   0.85957   0.24928   -0.122480           
         C         C         0.14062   0.19333   0.24869   -0.122631           
         C         C         0.80637   0.94504   0.24152   -0.123458           
         C         C         0.95355   0.14413   0.23472   -0.126459           
         C         C         0.85731   0.80887   0.24292   -0.125134           
         C         C         0.19254   0.04834   0.25067   -0.122644           
         C         C         0.06034   0.79955   0.25408   -0.163462           
         C         C         0.20146   0.26117   0.25252   -0.168178           
         C         C         0.73819   0.93743   0.24210   -0.162651           
         C         C         0.94423   0.20373   0.23739   -0.162887           
         C         C         0.79716   0.74066   0.24693   -0.161733           
         C         C         0.26053   0.05573   0.25889   -0.164893           
         C         C         0.02791   0.74879   0.34988   0.200068  
         C         C         0.25432   0.27937   0.34680   0.200882  
         C         C         0.72084   0.97450   0.33150   0.198666  
         C         C         0.97072   0.25229   0.33965   0.198833  
         C         C         0.74797   0.72185   0.34526   0.199777  
         C         C         0.27926   0.02585   0.35976   0.199725  
         C         C         0.98911   0.76142   0.44227   -0.179117           
         C         C         0.24355   0.22794   0.43824   -0.181743           
         C         C         0.77342   0.01772   0.42179   -0.178706           
         C         C         0.00599   0.23862   0.43896   -0.177869           
         C         C         0.76231   0.77265   0.44122   -0.178273           
         C         C         0.22838   0.99005   0.45368   -0.178835           
         C         C         0.98232   0.82247   0.43756   -0.119486           
         C         C         0.18143   0.16075   0.43514   -0.118050           
         C         C         0.84089   0.02368   0.42158   -0.118034           
         C         C         0.01375   0.17798   0.43590   -0.122131           
         C         C         0.82368   0.84029   0.43753   -0.121453           
         C         C         0.16099   0.98447   0.44574   -0.121494           
         C         C         0.01310   0.87250   0.34093   0.061611  
         C         C         0.12896   0.14185   0.34032   0.059833  
         C         C         0.85926   0.98819   0.33111   0.061356  
         C         C         0.98770   0.12948   0.33419   0.065294  
         C         C         0.87213   0.85983   0.33837   0.065126  
         C         C         0.14147   0.01294   0.34423   0.062444  
         C         C         0.56961   0.00752   0.37335   0.062101  
         C         C         0.98902   0.56203   0.38517   0.062876  
         C         C         0.44045   0.43126   0.37217   0.061129  
         C         C         0.43233   0.99326   0.39025   0.061773  
         C         C         -0.00042  0.43607   0.38378   0.061795  
         C         C         0.56337   0.56942   0.37859   0.060643  
         C         C         0.50810   0.93894   0.38047   -0.105314           
         C         C         0.05664   0.56665   0.39149   -0.106645           
         C         C         0.43379   0.49235   0.39353   -0.107192           
         C         C         0.49402   0.06190   0.38672   -0.106877           
         C         C         0.93178   0.43135   0.38083   -0.106719           
         C         C         0.57003   0.50809   0.35973   -0.105243           
         C         C         0.44056   0.93212   0.39005   -0.131850           
         C         C         0.06158   0.50467   0.39232   -0.129884           
         C         C         0.49448   0.56035   0.39770   -0.130883           
         C         C         0.56166   0.06876   0.37964   -0.131246           
         C         C         0.92679   0.49348   0.38340   -0.132151           
         C         C         0.50953   0.44008   0.35772   -0.132575           
         H         H         0.51515   0.89224   0.37793   0.114608  
         H         H         0.10430   0.61964   0.39536   0.114483  
         H         H         0.38030   0.48476   0.40633   0.115180  
         H         H         0.48705   0.10867   0.38893   0.114420  
         H         H         0.88387   0.37848   0.37612   0.114845  
         H         H         0.62349   0.51577   0.34636   0.113300  
         H         H         0.39298   0.87907   0.39537   0.107717  
         H         H         0.11403   0.50857   0.39735   0.107420  
         H         H         0.48895   0.60730   0.41546   0.108102  
         H         H         0.60949   0.12178   0.37735   0.107754  
         H         H         0.87431   0.48966   0.38156   0.107489  
         H         H         0.51485   0.39280   0.34270   0.107654  
         H         H         0.07580   0.89779   0.17368   0.101108  
         H         H         0.10088   0.17996   0.17410   0.101676  
         H         H         0.81865   0.91596   0.17170   0.101178  
         H         H         0.93335   0.10768   0.15442   0.100795  
         H         H         0.89400   0.82341   0.16497   0.101498  
         H         H         0.17887   0.07076   0.17077   0.102233  
         H         H         0.09068   0.79035   0.18268   0.122343  
         H         H         0.20999   0.30078   0.18158   0.121825  
         H         H         0.69780   0.90349   0.17255   0.121588  
         H         H         0.91754   0.21421   0.15966   0.122613  
         H         H         0.78638   0.70141   0.17303   0.121658  
         H         H         0.29979   0.08321   0.18618   0.121741  
         H         H         0.96679   0.72431   0.51993   0.111762  
         H         H         0.28279   0.24164   0.51390   0.114817  
         H         H         0.76005   0.04421   0.49517   0.112606  
         H         H         0.02459   0.27411   0.52082   0.112295  
         H         H         0.72648   0.75776   0.52063   0.112435  
         H         H         0.24262   0.96884   0.53471   0.112817  
         H         H         0.95302   0.83196   0.51047   0.101326  
         H         H         0.17319   0.12214   0.50788   0.102330  
         H         H         0.87985   0.05588   0.49414   0.101793  
         H         H         0.03884   0.16704   0.51549   0.101905  
         H         H         0.83469   0.87827   0.51391   0.101801  
         H         H         0.12274   0.95810   0.52034   0.101921  
         N         N         0.68870   0.65205   0.34512   -0.280919           
         N         N         0.34916   0.03640   0.36290   -0.278594           
         N         N         0.95772   0.31024   0.34115   -0.281970           
         N         N         0.31350   0.34926   0.34850   -0.279335           
         N         N         0.65073   0.96313   0.33307   -0.283442           
         N         N         0.03723   0.68870   0.35182   -0.281071           
         C         C         0.62621   0.64161   0.37526   0.069250  
         C         C         0.36010   0.98399   0.38869   0.069362  
         C         C         0.00875   0.37307   0.37568   0.070563  
         C         C         0.37748   0.35922   0.36407   0.070496  
         C         C         0.64106   0.01646   0.35904   0.067586  
         C         C         0.98279   0.62661   0.37679   0.067934  
         H         H         0.61691   0.68664   0.39507   0.071263  
         H         H         0.31558   0.92919   0.40471   0.070686  
         H         H         0.06335   0.38307   0.39657   0.068797  
         H         H         0.38758   0.31382   0.36882   0.070878  
         H         H         0.68652   0.07169   0.36911   0.069572  
         H         H         0.92873   0.61937   0.38842   0.070136  
         C         C         0.06290   0.06559   0.83727   -0.020889           
         C         C         0.93147   0.99487   0.83359   -0.018703           
         C         C         0.00186   0.93396   0.83944   -0.017790           
         C         C         0.93441   0.93066   0.83574   -0.018940           
         C         C         0.06625   0.00143   0.84020   -0.017322           
         C         C         0.99544   0.06230   0.83425   -0.018227           
         C         C         0.04534   0.85492   0.74968   -0.120824           
         C         C         0.14399   0.18641   0.74178   -0.125574           
         C         C         0.81192   0.96126   0.73204   -0.128275           
         C         C         0.95003   0.14009   0.74186   -0.124781           
         C         C         0.85284   0.80687   0.74492   -0.120640           
         C         C         0.19043   0.04674   0.75593   -0.121825           
         C         C         0.05490   0.79573   0.75457   -0.166298           
         C         C         0.20388   0.25490   0.74638   -0.160242           
         C         C         0.74455   0.95541   0.73546   -0.158673           
         C         C         0.94335   0.20111   0.74314   -0.161844           
         C         C         0.79151   0.73950   0.74890   -0.167287           
         C         C         0.25888   0.05525   0.76283   -0.168111           
         C         C         0.02252   0.74459   0.84950   0.199500  
         C         C         0.25325   0.27590   0.84749   0.198855  
         C         C         0.72431   0.98122   0.83982   0.198931  
         C         C         0.98009   0.25533   0.83431   0.200106  
         C         C         0.74006   0.72359   0.84217   0.199559  
         C         C         0.27660   0.02073   0.85697   0.199477  
         C         C         0.98120   0.75490   0.93983   -0.182314           
         C         C         0.24033   0.22639   0.94397   -0.178564           
         C         C         0.77304   0.01181   0.94149   -0.176025           
         C         C         0.02200   0.24545   0.92614   -0.179659           
         C         C         0.75247   0.77679   0.93221   -0.180727           
         C         C         0.22372   0.97793   0.94391   -0.181931           
         C         C         0.97362   0.81559   0.93566   -0.118272           
         C         C         0.17938   0.15838   0.93913   -0.120007           
         C         C         0.83991   0.01644   0.93758   -0.122098           
         C         C         0.02668   0.18314   0.92556   -0.116549           
         C         C         0.81512   0.84338   0.92893   -0.120821           
         C         C         0.15592   0.97151   0.93786   -0.117213           
         C         C         0.00591   0.86688   0.84126   0.058894  
         C         C         0.12990   0.13711   0.83867   0.065657  
         C         C         0.86050   0.99134   0.83345   0.067123  
         C         C         0.99115   0.12935   0.83359   0.061860  
         C         C         0.86659   0.85991   0.83582   0.061127  
         C         C         0.13779   0.00591   0.84443   0.057097  
         C         C         0.57044   0.00919   0.89155   0.063198  
         C         C         0.99313   0.56066   0.86994   0.061606  
         C         C         0.43533   0.43270   0.88864   0.064389  
         C         C         0.43111   0.99068   0.88667   0.060459  
         C         C         0.01189   0.44009   0.86388   0.061854  
         C         C         0.55553   0.57207   0.87690   0.060134  
         C         C         0.51036   0.94089   0.86766   -0.105828           
         C         C         0.06246   0.56945   0.87941   -0.106079           
         C         C         0.42601   0.49284   0.87773   -0.107636           
         C         C         0.49097   0.05860   0.91408   -0.106722           
         C         C         0.94249   0.43128   0.85559   -0.105850           
         C         C         0.56476   0.51202   0.89051   -0.105101           
         C         C         0.44169   0.93174   0.86669   -0.132285           
         C         C         0.07158   0.50988   0.87722   -0.131731           
         C         C         0.48533   0.56158   0.87322   -0.132075           
         C         C         0.55961   0.06742   0.91785   -0.132283           
         C         C         0.93337   0.49077   0.85958   -0.130416           
         C         C         0.50552   0.44345   0.89757   -0.132395           
         H         H         0.51953   0.89638   0.84876   0.113611  
         H         H         0.10790   0.62373   0.88781   0.113790  
         H         H         0.37150   0.48366   0.87198   0.113605  
         H         H         0.48226   0.10359   0.93126   0.115484  
         H         H         0.89698   0.37713   0.84517   0.114124  
         H         H         0.61921   0.52103   0.89398   0.113955  
         H         H         0.39530   0.87896   0.84763   0.107765  
         H         H         0.12523   0.51670   0.88442   0.107495  
         H         H         0.47791   0.60796   0.86511   0.107821  
         H         H         0.60594   0.11997   0.93878   0.108703  
         H         H         0.87969   0.48386   0.85298   0.106997  
         H         H         0.51288   0.39709   0.90738   0.108079  
         H         H         0.06941   0.89328   0.67435   0.100982  
         H         H         0.10704   0.17091   0.66207   0.102079  
         H         H         0.82711   0.94177   0.65026   0.102381  
         H         H         0.92203   0.09930   0.66973   0.100876  
         H         H         0.89122   0.81853   0.67069   0.101548  
         H         H         0.17763   0.07295   0.68113   0.101528  
         H         H         0.08613   0.78726   0.68408   0.122384  
         H         H         0.21422   0.29271   0.67096   0.121452  
         H         H         0.70677   0.93150   0.65724   0.120333  
         H         H         0.91086   0.20861   0.67240   0.121307  
         H         H         0.78176   0.69852   0.67900   0.122166  
         H         H         0.29918   0.08782   0.69456   0.122593  
         H         H         0.95738   0.71637   0.01519   0.115309  
         H         H         0.27682   0.24229   0.02461   0.112698  
         H         H         0.75703   0.02864   0.02562   0.112145  
         H         H         0.04861   0.28557   0.00015   0.114390  
         H         H         0.71413   0.76448   0.00702   0.114584  
         H         H         0.23702   0.95217   0.01901   0.115086  
         H         H         0.94250   0.82356   0.00708   0.101960  
         H         H         0.16912   0.12111   0.01534   0.102143  
         H         H         0.87602   0.03761   0.01850   0.101678  
         H         H         0.05821   0.17554   -0.00205  0.101661  
         H         H         0.82470   0.88341   0.00044   0.100631  
         H         H         0.11630   0.93913   0.00715   0.101448  
         N         N         0.68096   0.65400   0.84609   -0.277447           
         N         N         0.34722   0.03346   0.86393   -0.278066           
         N         N         0.96974   0.31460   0.83265   -0.282284           
         N         N         0.31114   0.34647   0.84882   -0.281304           
         N         N         0.65475   0.97119   0.83992   -0.281522           
         N         N         0.03537   0.68683   0.85166   -0.278358           
         C         C         0.61744   0.64419   0.86422   0.068156  
         C         C         0.35862   0.98016   0.87492   0.070177  
         C         C         0.02250   0.37816   0.85786   0.068134  
         C         C         0.37408   0.35958   0.88526   0.068795  
         C         C         0.64317   0.02016   0.88557   0.068833  
         C         C         0.98236   0.62254   0.86595   0.069543  
         H         H         0.60709   0.68945   0.86700   0.071070  
         H         H         0.31430   0.92414   0.87102   0.069856  
         H         H         0.07766   0.38864   0.87349   0.070619  
         H         H         0.38508   0.31621   0.90981   0.069792  
         H         H         0.68733   0.07270   0.91769   0.071239  
         H         H         0.92653   0.61129   0.87057   0.070128 

