
##########################################################################
#               Crystallographic Information Format file
#               Produced by PyCifRW module
#
#  This is a CIF file.  CIF has been adopted by the International
#  Union of Crystallography as the standard for data archiving and
#  transmission.
#
#  For information on this file format, follow the CIF links at
#  http://www.iucr.org
##########################################################################

data_image0

_cell_length_a                          30.1318
_cell_length_b                          30.0815
_cell_length_c                          8.03603
_cell_angle_alpha                       118.036
_cell_angle_beta                        77.2101
_cell_angle_gamma                       120.012
_symmetry_space_group_name_H-M          'P 1'
_space_group_name_Hall                  'P 1'
loop_
  _atom_site_type_symbol
  _atom_site_label
  _atom_site_fract_x
  _atom_site_fract_y
  _atom_site_fract_z
  _atom_site_charge
         C         C         0.04675   0.00023   0.01562   -0.001560           
         C         C         -0.00010  0.04459   0.99079   -0.001164           
         C         C         0.95233   0.95275   0.01151   0.001380  
         C         C         0.95257   0.99808   0.99555   -0.005499           
         C         C         -0.00056  0.95392   0.02210   -0.006508           
         C         C         0.04702   0.04575   0.00133   -0.002814           
         C         C         0.09435   0.00089   0.02290   -0.006733           
         C         C         0.00018   0.09014   0.97305   -0.004795           
         C         C         0.90450   0.90566   0.01593   -0.007723           
         C         C         0.90506   0.99706   0.98435   -0.004071           
         C         C         -0.00070  0.90823   0.03833   -0.000346           
         C         C         0.09489   0.09294   -0.00246  -0.004213           
         C         C         0.04618   0.90815   0.04420   0.038096  
         C         C         0.09559   0.13901   0.98539   0.039108  
         C         C         0.85744   0.95063   0.98897   0.045843  
         C         C         0.95343   0.08957   0.96062   0.037178  
         C         C         0.90380   0.85990   0.03072   0.040985  
         C         C         0.14196   0.04727   0.01795   0.046417  
         C         C         0.09456   0.95491   0.03290   0.043117  
         C         C         0.04738   0.13671   0.96744   0.041377  
         C         C         0.85719   0.90435   0.00618   0.047018  
         C         C         0.90495   0.04257   0.97023   0.041241  
         C         C         0.95213   0.86182   0.04587   0.035143  
         C         C         0.14226   0.09408   0.00487   0.044094  
         C         C         0.04485   0.86232   0.05473   -0.174835           
         C         C         0.14273   0.18555   0.98969   -0.177008           
         C         C         0.81166   0.95062   0.97836   -0.180680           
         C         C         0.95496   0.13514   0.94684   -0.178887           
         C         C         0.85655   0.81402   0.03110   -0.187185           
         C         C         0.18776   0.04656   0.02284   -0.181574           
         C         C         0.18820   0.00040   0.02281   0.073052  
         C         C         0.00119   0.18131   0.94291   0.078633  
         C         C         0.81001   0.81305   0.02558   0.072121  
         C         C         0.81118   0.99586   0.97139   0.072121  
         C         C         0.99878   0.81626   0.06017   0.073035  
         C         C         0.18929   0.18613   0.99122   0.071081  
         C         C         0.14142   0.95516   0.02849   -0.186492           
         C         C         0.04666   0.17985   0.94636   -0.177140           
         C         C         0.81122   0.85865   0.01495   -0.178473           
         C         C         0.85801   0.04134   0.96730   -0.184056           
         C         C         0.95306   0.81763   0.05956   -0.172387           
         C         C         0.18821   0.13975   0.99561   -0.180273           
         H         H         0.14384   0.22136   0.98345   0.103906  
         H         H         0.77509   0.91594   0.98376   0.095906  
         H         H         0.08048   0.86238   0.06105   0.102685  
         H         H         0.85519   0.77931   0.04595   0.103936  
         H         H         0.22431   0.08143   0.01833   0.096129  
         H         H         0.91947   0.13568   0.94283   0.101552  
         H         H         0.22460   0.14066   -0.00350  0.096326  
         H         H         0.85718   0.07549   0.95580   0.102484  
         H         H         0.91720   0.78163   0.06121   0.099634  
         H         H         0.77484   0.85700   0.00866   0.095784  
         H         H         0.14245   0.92051   0.03555   0.103722  
         H         H         0.08253   0.21351   0.93075   0.101893  
         C         C         0.00350   0.23194   0.94648   0.059885  
         C         C         0.76067   0.76624   0.03797   0.063294  
         C         C         0.23664   0.99779   0.00763   0.064031  
         C         C         0.99742   0.76583   0.05403   0.065840  
         C         C         0.23862   0.23382   0.98474   0.065711  
         C         C         0.76262   0.99744   0.97847   0.062956  
         C         C         0.01194   0.33219   0.96135   0.202338  
         C         C         0.66626   0.67778   0.07430   0.205029  
         C         C         0.32948   0.99086   0.96279   0.200425  
         C         C         0.98996   0.66315   0.01294   0.202120  
         C         C         0.33426   0.32450   0.96993   0.204951  
         C         C         0.66959   0.00296   0.01285   0.200499  
         C         C         0.05189   0.33341   0.02900   -0.154800           
         C         C         0.67626   0.73489   0.17571   -0.148713           
         C         C         0.28528   0.94455   0.85544   -0.148873           
         C         C         0.95125   0.67937   0.10175   -0.143352           
         C         C         0.32467   0.26770   0.86078   -0.151792           
         C         C         0.71321   0.04994   0.12191   -0.149275           
         C         C         0.04731   0.28461   0.02411   -0.120442           
         C         C         0.72206   0.77804   0.15471   -0.126903           
         C         C         0.23964   0.94763   0.87980   -0.129280           
         C         C         0.95526   0.72981   0.12339   -0.126278           
         C         C         0.27818   0.22348   0.87101   -0.128423           
         C         C         0.75900   0.04751   0.10203   -0.126162           
         C         C         0.75109   0.70920   0.93937   -0.124317           
         C         C         0.28113   0.04463   0.11121   -0.123658           
         C         C         0.96337   0.23098   0.88054   -0.122853           
         C         C         0.24778   0.29056   0.08996   -0.123155           
         C         C         0.71871   0.95005   0.87285   -0.126471           
         C         C         0.03625   0.74955   0.96562   -0.121040           
         C         C         0.70464   0.66561   0.95571   -0.174101           
         C         C         0.32670   0.04133   0.09113   -0.174648           
         C         C         0.96725   0.28005   0.88787   -0.175491           
         C         C         0.29485   0.33525   0.08484   -0.174390           
         C         C         0.67300   0.95268   0.88770   -0.174812           
         C         C         0.03290   0.69953   0.94641   -0.174373           
         H         H         0.92941   0.19085   0.81578   0.102577  
         H         H         0.78032   0.69912   0.84686   0.105657  
         H         H         0.27955   0.08387   0.21087   0.101577  
         H         H         0.06846   0.77532   0.90401   0.102568  
         H         H         0.21755   0.29941   0.17822   0.105741  
         H         H         0.72061   0.91072   0.77736   0.100636  
         H         H         0.93706   0.27756   0.82544   0.106704  
         H         H         0.69839   0.62194   0.87874   0.107323  
         H         H         0.36038   0.07817   0.17444   0.108831  
         H         H         0.06296   0.68764   0.87354   0.102981  
         H         H         0.30114   0.37880   0.16827   0.106950  
         H         H         0.63959   0.91548   0.80386   0.109106  
         H         H         0.64699   0.74400   0.27055   0.116315  
         H         H         0.28802   0.90626   0.75346   0.118335  
         H         H         0.08611   0.37367   0.08709   0.117084  
         H         H         0.35476   0.25962   0.76889   0.117626  
         H         H         0.70982   0.08800   0.22181   0.119440  
         H         H         0.91882   0.65181   0.15698   0.116389  
         H         H         0.72933   0.82205   0.23435   0.098321  
         H         H         0.20595   0.91166   0.79424   0.107705  
         H         H         0.07760   0.28743   0.08680   0.102482  
         H         H         0.27144   0.17987   0.78548   0.098515  
         H         H         0.79227   0.08389   0.18879   0.105391  
         H         H         0.92572   0.74228   0.19849   0.103160  
         C         C         0.54470   0.98954   0.94905   0.057788  
         C         C         0.00927   0.54564   0.96436   0.061959  
         C         C         0.45211   0.45987   0.05131   0.055278  
         C         C         0.45460   0.00216   0.01444   0.061083  
         C         C         0.99374   0.44629   0.97336   0.061903  
         C         C         0.54792   0.54372   0.00564   0.053520  
         C         C         0.54002   0.03344   0.11443   -0.102398           
         C         C         0.96062   0.50881   0.00446   -0.103655           
         C         C         0.47996   0.44632   0.88572   -0.114195           
         C         C         0.45920   0.95809   0.84909   -0.107729           
         C         C         0.04218   0.48255   0.92956   -0.106808           
         C         C         0.51997   0.55737   0.17087   -0.111012           
         C         C         0.49571   0.03946   0.14634   -0.128712           
         C         C         0.95317   0.46002   0.00866   -0.132565           
         C         C         0.52714   0.48765   0.86365   -0.128725           
         C         C         0.50363   0.95218   0.81712   -0.125522           
         C         C         0.04970   0.53148   0.92593   -0.134828           
         C         C         0.47280   0.51599   0.19315   -0.130088           
         H         H         0.57178   0.06193   0.21578   0.112643  
         H         H         0.92990   0.52038   0.03407   0.117666  
         H         H         0.46346   0.40305   0.77662   0.117540  
         H         H         0.42771   0.92955   0.74651   0.114690  
         H         H         0.07299   0.47107   0.89915   0.113512  
         H         H         0.53642   0.60060   0.28026   0.116995  
         H         H         0.49238   0.07324   0.27558   0.104653  
         H         H         0.91580   0.43196   0.04259   0.103935  
         H         H         0.54840   0.47701   0.73484   0.100415  
         H         H         0.50721   0.91865   0.68753   0.103628  
         H         H         0.08703   0.55955   0.89160   0.102738  
         H         H         0.45167   0.52655   0.32240   0.100277  
         N         N         0.38179   0.36592   0.94705   -0.280466           
         N         N         0.62529   0.00979   0.04496   -0.294821           
         N         N         0.98172   0.61172   0.00060   -0.286095           
         N         N         0.61885   0.63761   0.10498   -0.283500           
         N         N         0.37319   0.98264   0.92635   -0.295733           
         N         N         0.02115   0.38238   0.96056   -0.280573           
         C         C         0.40309   0.41665   0.07949   0.067279  
         C         C         0.59103   0.98247   0.91373   0.072537  
         C         C         0.01850   0.59849   0.96825   0.061484  
         C         C         0.59720   0.58627   0.97616   0.069756  
         C         C         0.40888   0.01041   0.05265   0.071306  
         C         C         0.98472   0.39547   0.98457   0.069221  
         H         H         0.38630   0.42939   0.22002   0.064116  
         H         H         0.59547   0.95373   0.76982   0.067900  
         H         H         0.05846   0.62648   0.94824   0.059172  
         H         H         0.61403   0.57227   0.83646   0.062353  
         H         H         0.40660   0.04108   0.19584   0.066500  
         H         H         0.94552   0.36986   0.01926   0.064287  
         C         C         0.04761   0.00275   0.51395   -0.002421           
         C         C         0.00142   0.04808   0.49042   -0.003523           
         C         C         0.95310   0.95592   0.50865   -0.003466           
         C         C         0.95382   0.00177   0.49473   -0.001340           
         C         C         -0.00001  0.95643   0.51829   -0.002676           
         C         C         0.04830   0.04862   0.50042   -0.000715           
         C         C         0.09493   0.00281   0.52160   -0.006471           
         C         C         0.00216   0.09409   0.47427   -0.001802           
         C         C         0.90497   0.90912   0.51329   -0.003989           
         C         C         0.90646   0.00155   0.48634   -0.006898           
         C         C         -0.00071  0.91046   0.53468   -0.002568           
         C         C         0.09640   0.09569   0.49752   -0.009320           
         C         C         0.04583   0.91001   0.54274   0.040777  
         C         C         0.09760   0.14227   0.48686   0.043899  
         C         C         0.85857   0.95537   0.49103   0.047922  
         C         C         0.95557   0.09399   0.46254   0.036361  
         C         C         0.90382   0.86322   0.52846   0.038924  
         C         C         0.14281   0.04893   0.51670   0.043657  
         C         C         0.09453   0.95636   0.53038   0.041809  
         C         C         0.04958   0.14068   0.47009   0.038412  
         C         C         0.85785   0.90846   0.50537   0.042473  
         C         C         0.90683   0.04777   0.47564   0.040146  
         C         C         0.95182   0.86453   0.54323   0.038180  
         C         C         0.14347   0.09620   0.50532   0.047363  
         C         C         0.04388   0.86456   0.55839   -0.176126           
         C         C         0.14506   0.18863   0.49178   -0.182567           
         C         C         0.81295   0.95617   0.48382   -0.181135           
         C         C         0.95752   0.13919   0.44514   -0.175629           
         C         C         0.85640   0.81791   0.53115   -0.182831           
         C         C         0.18843   0.04756   0.52011   -0.177675           
         C         C         0.18820   0.00083   0.51829   0.072319  
         C         C         0.00391   0.18573   0.44460   0.075549  
         C         C         0.81012   0.81753   0.52677   0.069373  
         C         C         0.81303   0.00240   0.48248   0.073671  
         C         C         0.99739   0.81875   0.56336   0.076553  
         C         C         0.19124   0.18856   0.49433   0.072946  
         C         C         0.14116   0.95580   0.52345   -0.182341           
         C         C         0.04922   0.18476   0.45389   -0.175887           
         C         C         0.81161   0.86324   0.51607   -0.174011           
         C         C         0.86008   0.04783   0.47933   -0.185291           
         C         C         0.95208   0.82047   0.56001   -0.177083           
         C         C         0.18968   0.14196   0.49856   -0.181091           
         H         H         0.14676   0.22458   0.48439   0.106953  
         H         H         0.77616   0.92127   0.48679   0.099639  
         H         H         0.07928   0.86487   0.56976   0.103905  
         H         H         0.85466   0.78338   0.54842   0.106334  
         H         H         0.22514   0.08210   0.51449   0.099976  
         H         H         0.92206   0.13908   0.43615   0.101289  
         H         H         0.22593   0.14292   0.50216   0.098204  
         H         H         0.85942   0.08271   0.47252   0.103195  
         H         H         0.91600   0.78517   0.56489   0.100759  
         H         H         0.77537   0.86230   0.51271   0.097219  
         H         H         0.14172   0.92034   0.52607   0.105595  
         H         H         0.08533   0.21952   0.44634   0.102102  
         C         C         0.00577   0.23606   0.44750   0.067159  
         C         C         0.76084   0.77050   0.53835   0.073998  
         C         C         0.23643   0.99769   0.50362   0.067207  
         C         C         0.99477   0.76786   0.55885   0.063466  
         C         C         0.24107   0.23575   0.48818   0.073226  
         C         C         0.76439   0.00408   0.49026   0.068102  
         C         C         0.01057   0.33511   0.46552   0.200355  
         C         C         0.66649   0.67994   0.56362   0.200085  
         C         C         0.32880   0.99072   0.46865   0.197311  
         C         C         0.98505   0.66405   0.51653   0.204579  
         C         C         0.33796   0.32525   0.47662   0.198961  
         C         C         0.67105   0.00817   0.51445   0.198062  
         C         C         0.05153   0.33761   0.53184   -0.150999           
         C         C         0.67660   0.73685   0.67502   -0.141147           
         C         C         0.28755   0.94783   0.34080   -0.148075           
         C         C         0.94692   0.68124   0.60572   -0.145941           
         C         C         0.32591   0.26831   0.35518   -0.141447           
         C         C         0.71201   0.05284   0.64140   -0.148495           
         C         C         0.04892   0.28944   0.52504   -0.124460           
         C         C         0.72251   0.78114   0.66038   -0.132272           
         C         C         0.24199   0.95082   0.35931   -0.130657           
         C         C         0.95186   0.73205   0.62693   -0.127631           
         C         C         0.27859   0.22447   0.36253   -0.132635           
         C         C         0.75804   0.05123   0.62786   -0.131294           
         C         C         0.75083   0.71360   0.42775   -0.123782           
         C         C         0.27807   0.04128   0.62863   -0.126481           
         C         C         0.96475   0.23377   0.38170   -0.128624           
         C         C         0.25293   0.29267   0.60897   -0.125449           
         C         C         0.72300   0.95871   0.36630   -0.126887           
         C         C         0.03294   0.75059   0.47027   -0.120504           
         C         C         0.70450   0.66916   0.43811   -0.163271           
         C         C         0.32331   0.03787   0.61338   -0.169092           
         C         C         0.96685   0.28210   0.39005   -0.170353           
         C         C         0.30062   0.33659   0.60502   -0.162470           
         C         C         0.67733   0.96079   0.37618   -0.169342           
         C         C         0.02833   0.69979   0.44886   -0.172544           
         H         H         0.93147   0.19296   0.31664   0.103492  
         H         H         0.77937   0.70443   0.32789   0.105984  
         H         H         0.27418   0.07766   0.74184   0.100718  
         H         H         0.06541   0.77606   0.40850   0.102570  
         H         H         0.22491   0.30202   0.71170   0.106394  
         H         H         0.72729   0.92183   0.25899   0.101446  
         H         H         0.93574   0.27836   0.32850   0.105421  
         H         H         0.69764   0.62585   0.34522   0.107517  
         H         H         0.35425   0.07185   0.71531   0.107160  
         H         H         0.05746   0.68666   0.37239   0.104524  
         H         H         0.30924   0.37986   0.70577   0.108244  
         H         H         0.64627   0.92529   0.27694   0.107922  
         H         H         0.64728   0.74478   0.77287   0.115035  
         H         H         0.29249   0.91220   0.22739   0.118170  
         H         H         0.08477   0.37870   0.59300   0.115104  
         H         H         0.35472   0.25987   0.25545   0.115005  
         H         H         0.70620   0.08834   0.75116   0.118142  
         H         H         0.91412   0.65392   0.66074   0.115352  
         H         H         0.72971   0.82488   0.74743   0.095528  
         H         H         0.21063   0.91754   0.25819   0.106449  
         H         H         0.08025   0.29370   0.58683   0.104511  
         H         H         0.26970   0.18059   0.26845   0.097823  
         H         H         0.78907   0.08579   0.72884   0.105728  
         H         H         0.92229   0.74472   0.69969   0.103089  
         C         C         0.54427   0.99091   0.45257   0.059850  
         C         C         0.00386   0.54724   0.47719   0.064681  
         C         C         0.45334   0.46099   0.53439   0.056816  
         C         C         0.45451   0.00409   0.52278   0.060307  
         C         C         0.98867   0.44687   0.47734   0.060043  
         C         C         0.55355   0.54334   0.51523   0.056279  
         C         C         0.54186   0.03788   0.61007   -0.107166           
         C         C         0.95473   0.50855   0.50686   -0.106179           
         C         C         0.48878   0.44447   0.40951   -0.105232           
         C         C         0.45681   0.95696   0.36543   -0.105038           
         C         C         0.03774   0.48559   0.44763   -0.104983           
         C         C         0.51810   0.55980   0.64040   -0.104189           
         C         C         0.49769   0.04422   0.64452   -0.126229           
         C         C         0.94738   0.45915   0.50624   -0.131288           
         C         C         0.53811   0.48509   0.40047   -0.130800           
         C         C         0.50109   0.95071   0.33089   -0.127444           
         C         C         0.04514   0.53493   0.44776   -0.135760           
         C         C         0.46879   0.51921   0.64914   -0.130501           
         H         H         0.57527   0.06831   0.70349   0.114602  
         H         H         0.92347   0.51910   0.53243   0.116602  
         H         H         0.47618   0.39947   0.32079   0.114286  
         H         H         0.42343   0.92636   0.27162   0.115519  
         H         H         0.06918   0.47557   0.42567   0.113476  
         H         H         0.53047   0.60479   0.72841   0.113656  
         H         H         0.49601   0.08049   0.76716   0.103956  
         H         H         0.90956   0.42955   0.53152   0.103781  
         H         H         0.56526   0.47226   0.30178   0.106154  
         H         H         0.50293   0.91462   0.20774   0.104889  
         H         H         0.08310   0.56466   0.42369   0.102467  
         H         H         0.44145   0.53192   0.74676   0.106215  
         N         N         0.38727   0.36563   0.45952   -0.290080           
         N         N         0.62668   0.01473   0.54237   -0.301683           
         N         N         0.97586   0.61210   0.50303   -0.285751           
         N         N         0.61825   0.63901   0.58599   -0.287145           
         N         N         0.37239   0.98241   0.43605   -0.300567           
         N         N         0.01808   0.38530   0.46967   -0.282566           
         C         C         0.40160   0.41949   0.55009   0.060873  
         C         C         0.59029   0.98344   0.41657   0.070629  
         C         C         0.01298   0.60025   0.48277   0.064760  
         C         C         0.60483   0.58530   0.49720   0.057722  
         C         C         0.40915   0.01277   0.55989   0.067606  
         C         C         0.98023   0.39528   0.48127   0.065952  
         H         H         0.37626   0.43732   0.64351   0.061598  
         H         H         0.59168   0.95024   0.27848   0.065286  
         H         H         0.05331   0.62986   0.47445   0.058837  
         H         H         0.63027   0.56803   0.40148   0.063900  
         H         H         0.40866   0.04663   0.69754   0.064737  
         H         H         0.94036   0.36652   0.49897   0.064309 

