
##########################################################################
#               Crystallographic Information Format file
#               Produced by PyCifRW module
#
#  This is a CIF file.  CIF has been adopted by the International
#  Union of Crystallography as the standard for data archiving and
#  transmission.
#
#  For information on this file format, follow the CIF links at
#  http://www.iucr.org
##########################################################################

data_image0

_cell_length_a                          35.6132
_cell_length_b                          35.5983
_cell_length_c                          7.80639
_cell_angle_alpha                       104.098
_cell_angle_beta                        91.3587
_cell_angle_gamma                       90.9122
_symmetry_space_group_name_H-M          'P 1'
_space_group_name_Hall                  'P 1'
loop_
  _atom_site_type_symbol
  _atom_site_label
  _atom_site_fract_x
  _atom_site_fract_y
  _atom_site_fract_z
  _atom_site_charge
         C         C         0.48328   0.68130   0.25800   0.172547  
         C         C         0.54293   0.64794   0.26031   -0.184368           
         C         C         0.52067   0.61535   0.25734   -0.038560           
         C         C         0.53176   0.57632   0.25860   0.340625  
         C         C         0.51660   0.31589   0.25220   0.169129  
         C         C         0.45720   0.34895   0.24515   -0.186917           
         C         C         0.47993   0.38200   0.25978   -0.040450           
         C         C         0.46856   0.42087   0.25854   0.341954  
         C         C         0.31726   0.47923   0.23501   0.172629  
         C         C         0.35202   0.53984   0.25185   -0.188279           
         C         C         0.38417   0.51782   0.24970   -0.037359           
         C         C         0.42333   0.52964   0.25925   0.348284  
         C         C         0.68339   0.52081   0.25833   0.169466  
         C         C         0.65090   0.45984   0.26611   -0.188017           
         C         C         0.61767   0.48023   0.26658   -0.037018           
         C         C         0.57859   0.46802   0.26728   0.343764  
         C         C         0.52291   0.68089   0.26034   0.176860  
         C         C         0.46092   0.64900   0.25870   -0.184035           
         C         C         0.48115   0.61570   0.25997   -0.036903           
         C         C         0.46949   0.57647   0.26209   0.343011  
         C         C         0.47704   0.31576   0.24122   0.172934  
         C         C         0.53940   0.34840   0.26707   -0.185912           
         C         C         0.51977   0.38230   0.26973   -0.033296           
         C         C         0.53188   0.42179   0.27346   0.340357  
         C         C         0.68349   0.48148   0.26395   0.171994  
         C         C         0.65052   0.54120   0.25895   -0.187430           
         C         C         0.61756   0.51979   0.26476   -0.037152           
         C         C         0.57835   0.53076   0.26238   0.342414  
         C         C         0.31873   0.51919   0.24787   0.174378  
         C         C         0.34902   0.45693   0.22640   -0.184984           
         C         C         0.38322   0.47768   0.24059   -0.035314           
         C         C         0.42246   0.46631   0.24683   0.343480  
         O         O         0.53661   0.71731   0.25750   -0.338716           
         O         O         0.46331   0.27889   0.23458   -0.335063           
         O         O         0.28273   0.53306   0.25424   -0.339478           
         O         O         0.72028   0.46935   0.26082   -0.338381           
         O         O         0.47208   0.71806   0.25370   -0.341121           
         O         O         0.52810   0.27905   0.25105   -0.338586           
         O         O         0.72007   0.53369   0.24946   -0.335612           
         O         O         0.27983   0.46779   0.23077   -0.344097           
         H         H         0.57319   0.64548   0.25700   0.150309  
         H         H         0.42681   0.34957   0.23544   0.151939  
         H         H         0.35345   0.57041   0.25620   0.149669  
         H         H         0.65006   0.42926   0.26374   0.149844  
         H         H         0.43042   0.64874   0.25636   0.151491  
         H         H         0.56985   0.34701   0.27510   0.151053  
         H         H         0.64955   0.57121   0.25236   0.149339  
         H         H         0.34713   0.42583   0.20631   0.148625  
         N         N         0.56738   0.56605   0.25794   -0.382019           
         N         N         0.43270   0.43058   0.24775   -0.378890           
         N         N         0.43391   0.56547   0.26115   -0.381235           
         N         N         0.56793   0.43244   0.27340   -0.376867           
         B         B         0.50504   0.74064   0.25623   0.580870  
         B         B         0.49515   0.25642   0.24126   0.581767  
         B         B         0.25862   0.50121   0.24506   0.588245  
         B         B         0.74255   0.50188   0.25412   0.583653  
         N         N         0.49524   0.09427   0.23889   -0.213127           
         C         C         0.49473   0.13466   0.24712   0.206491  
         C         C         0.49442   0.21372   0.24552   -0.243621           
         N         N         0.50243   0.90480   0.26006   -0.219641           
         C         C         0.50325   0.86398   0.25283   0.202780  
         C         C         0.50516   0.78398   0.25172   -0.234406           
         N         N         0.90488   0.50429   0.24789   -0.212030           
         C         C         0.86463   0.50401   0.25221   0.204697  
         C         C         0.78556   0.50232   0.25406   -0.247153           
         N         N         0.09600   0.50154   0.22793   -0.207531           
         C         C         0.13635   0.50200   0.23299   0.202751  
         C         C         0.21564   0.50245   0.24457   -0.241187           
         C         C         0.48089   0.96695   0.26799   -0.059618           
         C         C         0.46301   0.07067   0.25564   0.426256  
         O         O         0.43068   0.08118   0.27158   -0.368903           
         C         C         0.46054   0.15368   0.24474   -0.186167           
         C         C         0.46065   0.19262   0.24353   -0.027388           
         H         H         0.43445   0.13761   0.24259   0.132898  
         H         H         0.43392   0.20686   0.24138   0.109843  
         C         C         0.51672   0.03273   0.23438   -0.059940           
         C         C         0.53446   0.92879   0.23739   0.424634  
         O         O         0.56715   0.91976   0.21603   -0.369757           
         C         C         0.53781   0.84512   0.25007   -0.182992           
         C         C         0.53838   0.80584   0.24823   -0.032240           
         H         H         0.56393   0.86099   0.24629   0.133528  
         H         H         0.56558   0.79237   0.24843   0.110404  
         C         C         0.03288   0.48345   0.25374   -0.059699           
         C         C         0.92780   0.47147   0.25619   0.423342  
         O         O         0.91700   0.43944   0.26408   -0.368625           
         C         C         0.84509   0.46966   0.26032   -0.188749           
         C         C         0.80601   0.46919   0.26042   -0.027042           
         H         H         0.86014   0.44360   0.26398   0.134590  
         H         H         0.79135   0.44213   0.26030   0.111649  
         C         C         0.96811   0.52306   0.24564   -0.056877           
         C         C         0.07364   0.53357   0.21575   0.421450  
         O         O         0.08370   0.56466   0.19018   -0.381528           
         C         C         0.15667   0.53723   0.26025   -0.180782           
         C         C         0.19574   0.53698   0.26567   -0.028994           
         H         H         0.14170   0.56397   0.26987   0.132373  
         H         H         0.21097   0.56432   0.28330   0.108817  
         C         C         0.51969   0.96788   0.24682   -0.058153           
         C         C         0.52837   0.07174   0.21948   0.424803  
         O         O         0.55993   0.08164   0.18845   -0.379385           
         C         C         0.52878   0.15563   0.25570   -0.185549           
         C         C         0.52820   0.19440   0.25286   -0.031827           
         H         H         0.55533   0.14149   0.25518   0.132958  
         H         H         0.55472   0.21000   0.25447   0.110369  
         C         C         0.47765   0.03167   0.25321   -0.059000           
         C         C         0.46943   0.92843   0.29291   0.421113  
         O         O         0.43846   0.91939   0.33643   -0.376914           
         C         C         0.46958   0.84235   0.24867   -0.180895           
         C         C         0.47098   0.80322   0.24736   -0.032918           
         H         H         0.44258   0.85569   0.24442   0.134786  
         H         H         0.44464   0.78739   0.24643   0.110755  
         C         C         0.96738   0.48433   0.25485   -0.063925           
         C         C         0.07193   0.47104   0.26043   0.423248  
         O         O         0.08233   0.44046   0.29318   -0.384058           
         C         C         0.15566   0.46711   0.20847   -0.171072           
         C         C         0.19465   0.46781   0.21657   -0.032827           
         H         H         0.13993   0.44003   0.18199   0.133369  
         H         H         0.20928   0.44075   0.19789   0.110248  
         C         C         0.03394   0.52169   0.23743   -0.054482           
         C         C         0.92856   0.53688   0.24378   0.425807  
         O         O         0.91944   0.56937   0.23954   -0.372160           
         C         C         0.84476   0.53769   0.24820   -0.182880           
         C         C         0.80573   0.53621   0.24792   -0.031132           
         H         H         0.85941   0.56465   0.24903   0.136836  
         H         H         0.79076   0.56240   0.24432   0.110080  
         C         C         0.45816   0.99840   0.26814   -0.072068           
         H         H         0.42787   0.99596   0.28062   0.150913  
         C         C         0.53931   0.00109   0.23300   -0.074315           
         H         H         0.56968   0.00183   0.22190   0.150714  
         C         C         -0.00034  0.46285   0.25952   -0.072344           
         H         H         -0.00047  0.43263   0.26532   0.152191  
         C         C         0.00154   0.54323   0.23452   -0.074099           
         H         H         0.00188   0.57351   0.22769   0.149402  
         Cu        Cu        0.50075   0.49869   0.26203   0.679992  
         N         N         0.50040   0.55371   0.26235   -0.449570           
         N         N         0.50042   0.44406   0.26833   -0.459736           
         N         N         0.44560   0.49838   0.25940   -0.449718           
         N         N         0.55592   0.49891   0.26202   -0.447458           
         C         C         0.47668   0.68296   0.74629   0.172863  
         C         C         0.53843   0.65321   0.75752   -0.183534           
         C         C         0.51795   0.61958   0.76269   -0.038965           
         C         C         0.52985   0.58094   0.76794   0.343370  
         C         C         0.52042   0.32086   0.76133   0.174039  
         C         C         0.45914   0.34977   0.73696   -0.182083           
         C         C         0.47963   0.38348   0.73403   -0.036749           
         C         C         0.46708   0.42185   0.72650   0.340232  
         C         C         0.31646   0.47800   0.73574   0.166090  
         C         C         0.34894   0.54020   0.74407   -0.188133           
         C         C         0.38183   0.51880   0.73852   -0.037668           
         C         C         0.42094   0.53112   0.74208   0.341425  
         C         C         0.68185   0.52231   0.74222   0.170150  
         C         C         0.64791   0.46317   0.76177   -0.187391           
         C         C         0.61545   0.48498   0.76568   -0.036194           
         C         C         0.57623   0.47308   0.76781   0.345487  
         C         C         0.51645   0.68449   0.75016   0.165907  
         C         C         0.45624   0.64972   0.74994   -0.185699           
         C         C         0.47829   0.61815   0.75910   -0.039932           
         C         C         0.46711   0.57892   0.75916   0.342376  
         C         C         0.48081   0.31839   0.74764   0.168481  
         C         C         0.54145   0.35403   0.76096   -0.185807           
         C         C         0.51935   0.38543   0.74597   -0.036678           
         C         C         0.53006   0.42483   0.74508   0.339138  
         C         C         0.68107   0.48304   0.74753   0.175100  
         C         C         0.64993   0.54464   0.75224   -0.185158           
         C         C         0.61598   0.52459   0.76344   -0.036955           
         C         C         0.57650   0.53578   0.76965   0.340836  
         C         C         0.31650   0.51806   0.74266   0.172659  
         C         C         0.34862   0.45680   0.72813   -0.186417           
         C         C         0.38179   0.47841   0.72820   -0.036284           
         C         C         0.42080   0.46693   0.72363   0.338175  
         O         O         0.52915   0.72140   0.75092   -0.332594           
         O         O         0.46919   0.28106   0.74746   -0.337171           
         O         O         0.27982   0.52989   0.75020   -0.336582           
         O         O         0.71732   0.46961   0.73843   -0.338573           
         O         O         0.46398   0.71907   0.74010   -0.336828           
         O         O         0.53381   0.28531   0.77382   -0.338666           
         O         O         0.71903   0.53354   0.72855   -0.342639           
         O         O         0.28000   0.46433   0.73909   -0.332723           
         H         H         0.56891   0.65372   0.75229   0.151174  
         H         H         0.42874   0.34900   0.73458   0.149737  
         H         H         0.34944   0.57113   0.74761   0.151859  
         H         H         0.64646   0.43305   0.76610   0.149322  
         H         H         0.42575   0.64786   0.74792   0.149724  
         H         H         0.57207   0.35598   0.77078   0.152757  
         H         H         0.65122   0.57531   0.75439   0.149905  
         H         H         0.34767   0.42607   0.72325   0.150757  
         N         N         0.56563   0.57118   0.76577   -0.381083           
         N         N         0.43094   0.43087   0.72300   -0.373449           
         N         N         0.43132   0.56761   0.75209   -0.377384           
         N         N         0.56563   0.43681   0.75827   -0.379498           
         B         B         0.49648   0.74249   0.74560   0.581105  
         B         B         0.50227   0.26053   0.75837   0.584916  
         B         B         0.25756   0.49669   0.74373   0.583119  
         B         B         0.74102   0.50119   0.73290   0.588215  
         N         N         0.50096   0.09575   0.74331   -0.220766           
         C         C         0.50198   0.13647   0.74533   0.203193  
         C         C         0.50240   0.21692   0.75111   -0.243117           
         N         N         0.49956   0.90477   0.75194   -0.224461           
         C         C         0.49877   0.86457   0.75567   0.206600  
         C         C         0.49667   0.78542   0.75178   -0.247796           
         N         N         0.90454   0.49927   0.75623   -0.203619           
         C         C         0.86429   0.49930   0.75438   0.205335  
         C         C         0.78445   0.49948   0.73652   -0.239914           
         N         N         0.09563   0.49764   0.75504   -0.205037           
         C         C         0.13565   0.49727   0.74870   0.207233  
         C         C         0.21461   0.49706   0.74518   -0.244850           
         C         C         0.48049   0.96700   0.74161   -0.054630           
         C         C         0.46797   0.07189   0.74676   0.422073  
         O         O         0.43531   0.08151   0.75769   -0.373027           
         C         C         0.46808   0.15542   0.73074   -0.185249           
         C         C         0.46868   0.19480   0.73321   -0.025816           
         H         H         0.44179   0.13877   0.71910   0.133276  
         H         H         0.44215   0.20862   0.71952   0.109195  
         C         C         0.52120   0.03317   0.74450   -0.053329           
         C         C         0.53306   0.92787   0.74417   0.431251  
         O         O         0.56515   0.91771   0.73830   -0.367372           
         C         C         0.53253   0.84451   0.75654   -0.185944           
         C         C         0.53096   0.80542   0.75410   -0.028567           
         H         H         0.55911   0.85974   0.75628   0.134948  
         H         H         0.55694   0.78972   0.75031   0.110768  
         C         C         0.03254   0.47864   0.76893   -0.057606           
         C         C         0.92665   0.46618   0.75642   0.428088  
         O         O         0.91446   0.43377   0.74644   -0.372533           
         C         C         0.84332   0.46699   0.77672   -0.187085           
         C         C         0.80420   0.46741   0.76577   -0.027755           
         H         H         0.85673   0.44108   0.79572   0.136157  
         H         H         0.78915   0.44159   0.77966   0.109035  
         C         C         0.96783   0.51644   0.73954   -0.058310           
         C         C         0.07278   0.52932   0.73936   0.431504  
         O         O         0.08228   0.56108   0.72569   -0.372377           
         C         C         0.15580   0.53151   0.75006   -0.182763           
         C         C         0.19489   0.53115   0.74949   -0.027555           
         H         H         0.14058   0.55775   0.75346   0.132552  
         H         H         0.21049   0.55781   0.75312   0.109484  
         C         C         0.51975   0.96726   0.74359   -0.068376           
         C         C         0.53422   0.07279   0.73995   0.431047  
         O         O         0.56632   0.08337   0.73279   -0.366866           
         C         C         0.53631   0.15784   0.76241   -0.185078           
         C         C         0.53581   0.19708   0.76218   -0.030189           
         H         H         0.56279   0.14369   0.77158   0.133701  
         H         H         0.56253   0.21262   0.76822   0.107286  
         C         C         0.48189   0.03251   0.74254   -0.067011           
         C         C         0.46676   0.92768   0.74635   0.428586  
         O         O         0.43415   0.91834   0.75575   -0.370100           
         C         C         0.46398   0.84500   0.75462   -0.188337           
         C         C         0.46341   0.80593   0.75204   -0.028690           
         H         H         0.43787   0.86013   0.75352   0.133391  
         H         H         0.43658   0.79082   0.74755   0.110124  
         C         C         0.96689   0.47864   0.76380   -0.059875           
         C         C         0.07202   0.46730   0.78696   0.421595  
         O         O         0.08224   0.43767   0.82920   -0.389641           
         C         C         0.15467   0.46257   0.73628   -0.181231           
         C         C         0.19374   0.46301   0.73678   -0.030966           
         H         H         0.13927   0.43592   0.72842   0.136636  
         H         H         0.20848   0.43627   0.72875   0.109428  
         C         C         0.03329   0.51614   0.74469   -0.059331           
         C         C         0.92862   0.52979   0.73078   0.417553  
         O         O         0.91942   0.56096   0.70228   -0.380454           
         C         C         0.84537   0.53173   0.72634   -0.186236           
         C         C         0.80631   0.53128   0.71687   -0.030281           
         H         H         0.86122   0.55703   0.71350   0.132549  
         H         H         0.79312   0.55712   0.69586   0.108222  
         C         C         0.45960   -0.00027  0.73787   -0.077664           
         H         H         0.42868   0.00098   0.73158   0.156538  
         C         C         0.54138   0.00011   0.74531   -0.075309           
         H         H         0.57149   -0.00080  0.75672   0.150348  
         C         C         -0.00058  0.45823   0.78485   -0.071566           
         H         H         0.00020   0.42928   0.81186   0.153097  
         C         C         0.00109   0.53671   0.72801   -0.072275           
         H         H         0.00187   0.56588   0.70728   0.148346  
         Cu        Cu        0.49828   0.50168   0.75088   0.683526  
         N         N         0.49859   0.55743   0.76902   -0.454862           
         N         N         0.49827   0.44581   0.73057   -0.455091           
         N         N         0.44353   0.49944   0.73228   -0.449691           
         N         N         0.55362   0.50418   0.77342   -0.446326 

