
##########################################################################
#               Crystallographic Information Format file
#               Produced by PyCifRW module
#
#  This is a CIF file.  CIF has been adopted by the International
#  Union of Crystallography as the standard for data archiving and
#  transmission.
#
#  For information on this file format, follow the CIF links at
#  http://www.iucr.org
##########################################################################

data_image0

_cell_length_a                          35.5418
_cell_length_b                          35.5398
_cell_length_c                          7.94111
_cell_angle_alpha                       121.494
_cell_angle_beta                        90.2305
_cell_angle_gamma                       90.4895
_symmetry_space_group_name_H-M          'P 1'
_space_group_name_Hall                  'P 1'
loop_
  _atom_site_type_symbol
  _atom_site_label
  _atom_site_fract_x
  _atom_site_fract_y
  _atom_site_fract_z
  _atom_site_charge
         C         C         0.48414   0.68013   0.25028   0.172964  
         C         C         0.54448   0.64706   0.25270   -0.175861           
         C         C         0.52240   0.61372   0.24863   -0.041908           
         C         C         0.53304   0.57460   0.24998   0.317552  
         C         C         0.51601   0.31646   0.25748   0.170883  
         C         C         0.45587   0.34876   0.24639   -0.176238           
         C         C         0.47801   0.38266   0.25563   -0.039219           
         C         C         0.46735   0.42170   0.25349   0.316015  
         C         C         0.31764   0.47940   0.23694   0.170913  
         C         C         0.35201   0.54006   0.23982   -0.187712           
         C         C         0.38452   0.51817   0.24110   -0.039653           
         C         C         0.42389   0.52944   0.24377   0.327569  
         C         C         0.68230   0.51829   0.25452   0.171967  
         C         C         0.64991   0.45743   0.25976   -0.189733           
         C         C         0.61645   0.47831   0.26032   -0.038886           
         C         C         0.57697   0.46706   0.26216   0.325246  
         C         C         0.52389   0.68014   0.25426   0.172842  
         C         C         0.46213   0.64743   0.24717   -0.176964           
         C         C         0.48275   0.61391   0.24628   -0.042057           
         C         C         0.47041   0.57485   0.24577   0.317135  
         C         C         0.47630   0.31587   0.24765   0.168620  
         C         C         0.53811   0.34974   0.26577   -0.176855           
         C         C         0.51768   0.38313   0.26425   -0.041113           
         C         C         0.53014   0.42221   0.26467   0.315804  
         C         C         0.68255   0.47886   0.25677   0.171010  
         C         C         0.64959   0.53911   0.25471   -0.188286           
         C         C         0.61661   0.51770   0.25821   -0.040318           
         C         C         0.57769   0.52910   0.25656   0.326547  
         C         C         0.31879   0.51938   0.23924   0.170932  
         C         C         0.34969   0.45761   0.23853   -0.188432           
         C         C         0.38353   0.47847   0.24044   -0.038626           
         C         C         0.42248   0.46691   0.24497   0.325675  
         O         O         0.53728   0.71710   0.25723   -0.339449           
         O         O         0.46278   0.27860   0.24212   -0.337886           
         O         O         0.28244   0.53304   0.24011   -0.336314           
         O         O         0.71959   0.46679   0.25604   -0.338305           
         O         O         0.47219   0.71678   0.24893   -0.341026           
         O         O         0.52782   0.27968   0.25850   -0.341987           
         O         O         0.71881   0.53129   0.25028   -0.334955           
         O         O         0.28046   0.46732   0.23560   -0.336595           
         H         H         0.57503   0.64662   0.25329   0.152130  
         H         H         0.42535   0.34869   0.23934   0.152913  
         H         H         0.35310   0.57045   0.23844   0.148705  
         H         H         0.65008   0.42718   0.26243   0.149004  
         H         H         0.43158   0.64748   0.24466   0.153801  
         H         H         0.56863   0.35031   0.27403   0.152735  
         H         H         0.64923   0.56914   0.25022   0.149392  
         H         H         0.34883   0.42729   0.24058   0.149371  
         N         N         0.56860   0.56474   0.25368   -0.371055           
         N         N         0.43172   0.43123   0.24690   -0.372208           
         N         N         0.43441   0.56522   0.24407   -0.371825           
         N         N         0.56622   0.43181   0.26585   -0.373419           
         B         B         0.50517   0.73935   0.25264   0.579748  
         B         B         0.49481   0.25655   0.24916   0.582402  
         B         B         0.25904   0.50077   0.23843   0.591729  
         B         B         0.74172   0.49939   0.25176   0.590532  
         N         N         0.49707   0.09307   0.24644   -0.216789           
         C         C         0.49610   0.13341   0.24719   0.200933  
         C         C         0.49469   0.21345   0.25019   -0.237250           
         N         N         0.50294   0.90204   0.25046   -0.217849           
         C         C         0.50386   0.86190   0.25116   0.204319  
         C         C         0.50526   0.78219   0.25022   -0.242244           
         N         N         0.90485   0.50293   0.24717   -0.203337           
         C         C         0.86461   0.50209   0.24647   0.211256  
         C         C         0.78485   0.50037   0.24941   -0.250133           
         N         N         0.09648   0.50434   0.24885   -0.203216           
         C         C         0.13662   0.50377   0.24647   0.211495  
         C         C         0.21606   0.50201   0.24067   -0.251141           
         C         C         0.48135   0.96477   0.25671   -0.056568           
         C         C         0.46489   0.07020   0.25987   0.427414  
         O         O         0.43199   0.08040   0.26817   -0.372367           
         C         C         0.46170   0.15033   0.22795   -0.189813           
         C         C         0.46137   0.18985   0.23109   -0.026585           
         H         H         0.43556   0.13290   0.21243   0.137412  
         H         H         0.43455   0.20244   0.21623   0.115308  
         C         C         0.51846   0.03038   0.24097   -0.062068           
         C         C         0.53498   0.92453   0.23308   0.428151  
         O         O         0.56786   0.91385   0.21888   -0.372916           
         C         C         0.53839   0.84400   0.26120   -0.192619           
         C         C         0.53869   0.80461   0.25894   -0.023692           
         H         H         0.56457   0.86061   0.26861   0.136478  
         H         H         0.56566   0.79119   0.26576   0.113062  
         C         C         0.03368   0.48545   0.25691   -0.059721           
         C         C         0.92818   0.47221   0.26276   0.433593  
         O         O         0.91807   0.44189   0.28330   -0.390007           
         C         C         0.84506   0.46565   0.22969   -0.184607           
         C         C         0.80593   0.46538   0.23348   -0.030327           
         H         H         0.86043   0.43815   0.21693   0.136796  
         H         H         0.79144   0.43721   0.22393   0.109164  
         C         C         0.96771   0.52299   0.24520   -0.056554           
         C         C         0.07344   0.53556   0.23569   0.432292  
         O         O         0.08394   0.56580   0.21569   -0.390319           
         C         C         0.15734   0.54029   0.27152   -0.180332           
         C         C         0.19647   0.53880   0.26588   -0.030453           
         H         H         0.14290   0.56913   0.29258   0.133300  
         H         H         0.21212   0.56699   0.28221   0.108519  
         C         C         0.52047   0.96418   0.23851   -0.062827           
         C         C         0.53051   0.06926   0.23117   0.427675  
         O         O         0.56261   0.07823   0.20901   -0.375322           
         C         C         0.52977   0.15661   0.26682   -0.185152           
         C         C         0.52870   0.19580   0.26768   -0.036588           
         H         H         0.55639   0.14404   0.28176   0.135720  
         H         H         0.55499   0.21324   0.28264   0.114831  
         C         C         0.47927   0.03082   0.25755   -0.061505           
         C         C         0.46954   0.92619   0.26917   0.425429  
         O         O         0.43765   0.91784   0.29722   -0.375304           
         C         C         0.47004   0.83998   0.24245   -0.193699           
         C         C         0.47111   0.80095   0.24265   -0.030926           
         H         H         0.44333   0.85349   0.23548   0.138100  
         H         H         0.44471   0.78454   0.23669   0.114675  
         C         C         0.96766   0.48499   0.25584   -0.060495           
         C         C         0.07318   0.47362   0.26673   0.434388  
         O         O         0.08355   0.44417   0.29182   -0.389461           
         C         C         0.15568   0.46642   0.21847   -0.179596           
         C         C         0.19478   0.46615   0.21830   -0.031965           
         H         H         0.14000   0.43829   0.20036   0.134358  
         H         H         0.20902   0.43725   0.19964   0.109397  
         C         C         0.03381   0.52333   0.24514   -0.057824           
         C         C         0.92810   0.53479   0.23632   0.431204  
         O         O         0.91783   0.56524   0.21836   -0.388103           
         C         C         0.84409   0.53750   0.26247   -0.184192           
         C         C         0.80490   0.53612   0.26228   -0.029967           
         H         H         0.85871   0.56542   0.27202   0.135244  
         H         H         0.78958   0.56361   0.27230   0.108354  
         C         C         0.45915   0.99801   0.26614   -0.070365           
         H         H         0.42866   0.99837   0.27957   0.153843  
         C         C         0.54061   0.99709   0.23079   -0.074831           
         H         H         0.57107   0.99680   0.21716   0.156738  
         C         C         0.00061   0.46484   0.26299   -0.071146           
         H         H         0.00047   0.43549   0.27330   0.143072  
         C         C         0.00082   0.54373   0.23994   -0.072039           
         H         H         0.00095   0.57329   0.23121   0.143091  
         Ni        Ni        0.50023   0.49822   0.25323   0.466276  
         N         N         0.50125   0.55128   0.24734   -0.371709           
         N         N         0.49922   0.44527   0.25911   -0.370075           
         N         N         0.44653   0.49817   0.24678   -0.353550           
         N         N         0.55400   0.49817   0.25859   -0.352213           
         C         C         0.47753   0.68391   0.74991   0.171114  
         C         C         0.53882   0.65244   0.75208   -0.177166           
         C         C         0.51780   0.61829   0.74670   -0.040879           
         C         C         0.52971   0.57948   0.74801   0.315839  
         C         C         0.52037   0.32164   0.75814   0.175288  
         C         C         0.45890   0.35157   0.74658   -0.177471           
         C         C         0.47977   0.38617   0.75495   -0.040530           
         C         C         0.46788   0.42490   0.75307   0.317853  
         C         C         0.31699   0.47816   0.74207   0.171380  
         C         C         0.34903   0.53962   0.74038   -0.190112           
         C         C         0.38245   0.51917   0.74236   -0.038007           
         C         C         0.42154   0.53142   0.74305   0.324488  
         C         C         0.68109   0.52360   0.75512   0.170982  
         C         C         0.64764   0.46392   0.76420   -0.186356           
         C         C         0.61485   0.48523   0.76195   -0.040915           
         C         C         0.57578   0.47357   0.76275   0.326646  
         C         C         0.51727   0.68490   0.75335   0.170149  
         C         C         0.45650   0.65028   0.74459   -0.176703           
         C         C         0.47809   0.61722   0.74281   -0.039346           
         C         C         0.46692   0.57783   0.74237   0.314558  
         C         C         0.48064   0.31961   0.74839   0.170518  
         C         C         0.54121   0.35561   0.76599   -0.176273           
         C         C         0.51940   0.38796   0.76363   -0.043254           
         C         C         0.53049   0.42731   0.76402   0.315545  
         C         C         0.68054   0.48446   0.75984   0.170900  
         C         C         0.64871   0.54505   0.75427   -0.190313           
         C         C         0.61513   0.52435   0.75775   -0.037812           
         C         C         0.57585   0.53532   0.75506   0.325742  
         C         C         0.31665   0.51769   0.74061   0.171481  
         C         C         0.34984   0.45779   0.74456   -0.189953           
         C         C         0.38277   0.47973   0.74386   -0.039351           
         C         C         0.42199   0.46917   0.74671   0.326741  
         O         O         0.52973   0.72207   0.75581   -0.340763           
         O         O         0.46851   0.28204   0.74358   -0.339625           
         O         O         0.27981   0.52961   0.73933   -0.336417           
         O         O         0.71699   0.47133   0.75956   -0.335675           
         O         O         0.46465   0.72061   0.75070   -0.339702           
         O         O         0.53357   0.28539   0.75945   -0.339732           
         O         O         0.71811   0.53537   0.75023   -0.337333           
         O         O         0.28032   0.46481   0.74230   -0.336383           
         H         H         0.56937   0.65299   0.75396   0.152639  
         H         H         0.42836   0.35028   0.74017   0.154121  
         H         H         0.34867   0.56986   0.73774   0.148889  
         H         H         0.64700   0.43406   0.77009   0.148237  
         H         H         0.42595   0.64914   0.74073   0.152682  
         H         H         0.57174   0.35743   0.77453   0.152124  
         H         H         0.64912   0.57500   0.74910   0.149093  
         H         H         0.35035   0.42776   0.74890   0.149417  
         N         N         0.56566   0.57060   0.75175   -0.374499           
         N         N         0.43202   0.43363   0.74815   -0.371950           
         N         N         0.43117   0.56718   0.74118   -0.371196           
         N         N         0.56619   0.43801   0.76636   -0.371007           
         B         B         0.49711   0.74383   0.75352   0.581393  
         B         B         0.50139   0.26134   0.75219   0.578871  
         B         B         0.25757   0.49677   0.74020   0.592265  
         B         B         0.74008   0.50296   0.75350   0.591465  
         N         N         0.50185   0.09791   0.74766   -0.218917           
         C         C         0.50200   0.13825   0.74862   0.205484  
         C         C         0.50192   0.21850   0.75440   -0.242986           
         N         N         0.49947   0.90660   0.75036   -0.217205           
         C         C         0.49880   0.86644   0.75104   0.204273  
         C         C         0.49750   0.78667   0.75048   -0.239230           
         N         N         0.90304   0.49801   0.74782   -0.202235           
         C         C         0.86282   0.49900   0.74806   0.213683  
         C         C         0.78313   0.50174   0.75113   -0.254019           
         N         N         0.09476   0.49632   0.74989   -0.199867           
         C         C         0.13493   0.49597   0.74547   0.211961  
         C         C         0.21455   0.49615   0.74022   -0.252625           
         C         C         0.48077   0.96989   0.75345   -0.058395           
         C         C         0.46878   0.07555   0.75559   0.425830  
         O         O         0.43607   0.08594   0.75837   -0.373930           
         C         C         0.46800   0.15566   0.72886   -0.197469           
         C         C         0.46830   0.19523   0.73304   -0.025017           
         H         H         0.44165   0.13855   0.71222   0.138068  
         H         H         0.44169   0.20814   0.71768   0.114421  
         C         C         0.52099   0.03449   0.74284   -0.055802           
         C         C         0.53276   0.92873   0.74240   0.427369  
         O         O         0.56537   0.91809   0.74113   -0.372937           
         C         C         0.53263   0.84687   0.75724   -0.189740           
         C         C         0.53164   0.80766   0.75641   -0.028995           
         H         H         0.55932   0.86221   0.76153   0.134122  
         H         H         0.55811   0.79312   0.76177   0.115448  
         C         C         0.03169   0.47723   0.75543   -0.058104           
         C         C         0.92545   0.46588   0.75848   0.432161  
         O         O         0.91420   0.43514   0.77310   -0.386696           
         C         C         0.84150   0.46509   0.74520   -0.186478           
         C         C         0.80239   0.46694   0.74783   -0.029009           
         H         H         0.85544   0.43792   0.74320   0.134176  
         H         H         0.78645   0.44070   0.74824   0.107517  
         C         C         0.96629   0.51632   0.74738   -0.059469           
         C         C         0.07176   0.52776   0.73857   0.434474  
         O         O         0.08198   0.55793   0.71699   -0.390406           
         C         C         0.15493   0.53099   0.75138   -0.184924           
         C         C         0.19404   0.53057   0.74711   -0.030827           
         H         H         0.13992   0.55800   0.75745   0.134756  
         H         H         0.20893   0.55774   0.74953   0.107639  
         C         C         0.52001   0.96829   0.74151   -0.064782           
         C         C         0.53466   0.07345   0.73749   0.428442  
         O         O         0.56731   0.08216   0.72318   -0.373095           
         C         C         0.53606   0.16089   0.76914   -0.191231           
         C         C         0.53565   0.20034   0.77211   -0.028786           
         H         H         0.56236   0.14756   0.78294   0.136594  
         H         H         0.56226   0.21740   0.78855   0.113101  
         C         C         0.48177   0.03598   0.75480   -0.063742           
         C         C         0.46691   0.93137   0.76132   0.428309  
         O         O         0.43424   0.92337   0.77907   -0.371579           
         C         C         0.46427   0.84608   0.74624   -0.192626           
         C         C         0.46403   0.80688   0.74553   -0.029084           
         H         H         0.43806   0.86089   0.74255   0.137457  
         H         H         0.43705   0.79176   0.74208   0.113414  
         C         C         0.96546   0.47783   0.75407   -0.057576           
         C         C         0.07132   0.46467   0.76093   0.431303  
         O         O         0.08174   0.43394   0.77648   -0.386835           
         C         C         0.15493   0.46093   0.73625   -0.182418           
         C         C         0.19407   0.46156   0.73533   -0.030260           
         H         H         0.13998   0.43383   0.73219   0.131353  
         H         H         0.20901   0.43448   0.73116   0.107333  
         C         C         0.03224   0.51574   0.74862   -0.058615           
         C         C         0.92720   0.52910   0.73701   0.432766  
         O         O         0.91807   0.55960   0.71662   -0.387504           
         C         C         0.84406   0.53421   0.75227   -0.184066           
         C         C         0.80494   0.53513   0.75281   -0.028268           
         H         H         0.86004   0.56030   0.75275   0.131090  
         H         H         0.79116   0.56251   0.75405   0.107258  
         C         C         0.46009   0.00380   0.76053   -0.075256           
         H         H         0.42955   0.00506   0.76977   0.156934  
         C         C         0.54166   0.00050   0.73575   -0.070086           
         H         H         0.57220   -0.00067  0.72721   0.152437  
         C         C         0.99816   0.45675   0.75822   -0.073111           
         H         H         0.99754   0.42673   0.76325   0.143306  
         C         C         -0.00032  0.53675   0.74425   -0.073768           
         H         H         0.00027   0.56653   0.73728   0.143841  
         Ni        Ni        0.49875   0.50239   0.75175   0.465250  
         N         N         0.49849   0.55534   0.74525   -0.369077           
         N         N         0.49900   0.44947   0.75852   -0.370557           
         N         N         0.44512   0.50084   0.74650   -0.352531           
         N         N         0.55246   0.50399   0.75739   -0.352512 

