
##########################################################################
#               Crystallographic Information Format file
#               Produced by PyCifRW module
#
#  This is a CIF file.  CIF has been adopted by the International
#  Union of Crystallography as the standard for data archiving and
#  transmission.
#
#  For information on this file format, follow the CIF links at
#  http://www.iucr.org
##########################################################################

data_image0

_cell_length_a                          40.2432
_cell_length_b                          40.2355
_cell_length_c                          7.99109
_cell_angle_alpha                       109.401
_cell_angle_beta                        111.074
_cell_angle_gamma                       90.1661
_symmetry_space_group_name_H-M          'P 1'
_space_group_name_Hall                  'P 1'
loop_
  _atom_site_type_symbol
  _atom_site_label
  _atom_site_fract_x
  _atom_site_fract_y
  _atom_site_fract_z
  _atom_site_charge
         C         C         0.48128   0.66046   0.21385   0.168424  
         C         C         0.53688   0.63342   0.24263   -0.180657           
         C         C         0.51779   0.60407   0.24113   -0.040742           
         C         C         0.52852   0.57013   0.25077   0.322409  
         C         C         0.51867   0.34201   0.26663   0.168795  
         C         C         0.46437   0.37056   0.25748   -0.182391           
         C         C         0.48349   0.39983   0.25836   -0.041711           
         C         C         0.47328   0.43424   0.25512   0.321101  
         C         C         0.34135   0.48447   0.26782   0.177021  
         C         C         0.36875   0.53812   0.25696   -0.184018           
         C         C         0.39825   0.51966   0.25511   -0.039026           
         C         C         0.43246   0.52973   0.24963   0.323770  
         C         C         0.66102   0.51857   0.24279   0.174317  
         C         C         0.63151   0.46468   0.24049   -0.186616           
         C         C         0.60295   0.48421   0.24753   -0.035291           
         C         C         0.56867   0.47434   0.25141   0.322252  
         C         C         0.51748   0.66153   0.23104   0.175665  
         C         C         0.46236   0.63172   0.21486   -0.184329           
         C         C         0.48206   0.60344   0.23109   -0.038486           
         C         C         0.47232   0.56947   0.23985   0.323285  
         C         C         0.48312   0.34178   0.26000   0.176905  
         C         C         0.53758   0.37070   0.26500   -0.185003           
         C         C         0.51861   0.39980   0.25978   -0.035367           
         C         C         0.52866   0.43412   0.25573   0.322026  
         C         C         0.66028   0.48311   0.23765   0.171697  
         C         C         0.63275   0.53792   0.24803   -0.181899           
         C         C         0.60339   0.51943   0.25021   -0.040613           
         C         C         0.56913   0.52999   0.25472   0.319686  
         C         C         0.34054   0.51926   0.26306   0.169192  
         C         C         0.37022   0.46597   0.26498   -0.182025           
         C         C         0.39878   0.48488   0.25885   -0.040415           
         C         C         0.43308   0.47467   0.25501   0.322018  
         O         O         0.52885   0.69391   0.23118   -0.337487           
         O         O         0.47154   0.30942   0.25935   -0.337456           
         O         O         0.30820   0.53017   0.26756   -0.335462           
         O         O         0.69189   0.47108   0.22831   -0.334321           
         O         O         0.46937   0.69192   0.19814   -0.340823           
         O         O         0.53014   0.31003   0.27524   -0.334835           
         O         O         0.69342   0.52929   0.24003   -0.339902           
         O         O         0.30967   0.47318   0.27539   -0.338048           
         H         H         0.56448   0.63387   0.25192   0.151591  
         H         H         0.43729   0.37066   0.25615   0.151464  
         H         H         0.36825   0.56487   0.25345   0.151417  
         H         H         0.63077   0.43744   0.23676   0.152796  
         H         H         0.43460   0.63084   0.20299   0.151154  
         H         H         0.56475   0.37084   0.26760   0.151460  
         H         H         0.63300   0.56493   0.24828   0.152051  
         H         H         0.37103   0.43927   0.26916   0.151559  
         N         N         0.56049   0.56167   0.25518   -0.375139           
         N         N         0.44170   0.44302   0.25535   -0.375915           
         N         N         0.44077   0.56081   0.24163   -0.372691           
         N         N         0.56007   0.44275   0.25284   -0.371354           
         B         B         0.49901   0.71262   0.21037   0.600476  
         B         B         0.50081   0.28997   0.27022   0.589153  
         B         B         0.28922   0.50149   0.27460   0.586320  
         B         B         0.71227   0.49978   0.23090   0.584734  
         C         C         0.98365   0.46745   0.26979   0.038848  
         C         C         0.03908   0.55829   0.26597   -0.129757           
         C         C         0.07468   0.55869   0.28012   -0.067867           
         C         C         0.09124   0.52827   0.27522   -0.082551           
         C         C         0.12201   0.46372   0.20105   0.430249  
         H         H         0.02655   0.58210   0.26425   0.114984  
         H         H         0.08996   0.58243   0.29362   0.128738  
         O         O         0.13126   0.43498   0.13114   -0.414632           
         C         C         0.80802   0.53175   0.30103   -0.162656           
         C         C         0.77216   0.53126   0.28041   -0.040042           
         H         H         0.82407   0.55689   0.34335   0.133205  
         H         H         0.76119   0.55632   0.30750   0.109968  
         C         C         0.01975   0.52853   0.25901   0.036396  
         C         C         0.96585   0.43960   0.28774   -0.130152           
         C         C         0.93170   0.44087   0.29547   -0.065396           
         C         C         0.91373   0.46997   0.28105   -0.081328           
         C         C         0.87413   0.52735   0.22721   0.420779  
         H         H         0.97896   0.41643   0.29931   0.112216  
         H         H         0.91874   0.41957   0.31565   0.127224  
         O         O         0.85702   0.55066   0.18608   -0.398647           
         C         C         0.20044   0.47131   0.29866   -0.163208           
         C         C         0.23551   0.47274   0.30494   -0.050505           
         H         H         0.18992   0.45050   0.33150   0.135804  
         H         H         0.25140   0.45232   0.33920   0.113377  
         C         C         0.53041   0.98269   0.22712   0.034219  
         C         C         0.44153   0.03850   0.27494   -0.129829           
         C         C         0.44166   0.07365   0.28155   -0.077347           
         C         C         0.47008   0.09073   0.26697   -0.088179           
         C         C         0.52467   0.12442   0.20202   0.422250  
         H         H         0.41898   0.02633   0.28868   0.111912  
         H         H         0.41996   0.08851   0.30111   0.131318  
         O         O         0.54575   0.13640   0.14954   -0.429016           
         C         C         0.47196   0.79755   0.10108   -0.150875           
         C         C         0.47020   0.76262   0.09604   -0.048541           
         H         H         0.44927   0.80634   0.01059   0.131987  
         H         H         0.44561   0.74424   0.00129   0.107952  
         C         C         0.47001   0.01939   0.25815   0.034814  
         C         C         0.55946   0.96415   0.21575   -0.131486           
         C         C         0.56028   0.92962   0.21798   -0.082248           
         C         C         0.53186   0.91239   0.23140   -0.087322           
         C         C         0.47443   0.87610   0.26630   0.432921  
         H         H         0.58198   0.97654   0.20278   0.111005  
         H         H         0.58288   0.91543   0.20808   0.133083  
         O         O         0.45141   0.86189   0.29830   -0.432610           
         C         C         0.53116   0.20170   0.31658   -0.161124           
         C         C         0.53194   0.23652   0.32055   -0.039219           
         H         H         0.55617   0.19096   0.35974   0.132638  
         H         H         0.55778   0.25209   0.36441   0.109027  
         C         C         0.01914   0.46638   0.25858   0.037230  
         C         C         0.96343   0.55656   0.23347   -0.131622           
         C         C         0.92822   0.55601   0.22588   -0.075592           
         C         C         0.91165   0.52722   0.24002   -0.089535           
         C         C         0.87870   0.47154   0.30148   0.421366  
         H         H         0.97541   0.57937   0.22077   0.115001  
         H         H         0.91285   0.57755   0.20581   0.134628  
         O         O         0.86721   0.44940   0.35025   -0.422677           
         C         C         0.19386   0.52407   0.21377   -0.172549           
         C         C         0.22939   0.52593   0.22820   -0.027962           
         H         H         0.17803   0.54397   0.17469   0.126835  
         H         H         0.23998   0.54721   0.19779   0.112401  
         C         C         0.98294   0.52822   0.25070   0.035688  
         C         C         0.03673   0.43608   0.24517   -0.129524           
         C         C         0.07023   0.43521   0.22859   -0.063273           
         C         C         0.08813   0.46552   0.23476   -0.083177           
         C         C         0.12951   0.52998   0.30217   0.422292  
         H         H         0.02394   0.41223   0.24483   0.112797  
         H         H         0.08292   0.41112   0.21338   0.132449  
         O         O         0.14833   0.55893   0.36622   -0.408374           
         C         C         0.80122   0.46774   0.21309   -0.167916           
         C         C         0.76601   0.46798   0.20329   -0.035267           
         H         H         0.81174   0.44268   0.18273   0.135094  
         H         H         0.75017   0.44296   0.16937   0.112502  
         C         C         0.47089   0.98308   0.25851   0.033757  
         C         C         0.55644   0.03670   0.20177   -0.132190           
         C         C         0.55511   0.07113   0.19825   -0.067490           
         C         C         0.52642   0.08900   0.21832   -0.076573           
         C         C         0.46972   0.12828   0.28037   0.424229  
         H         H         0.57918   0.02359   0.18480   0.115181  
         H         H         0.57596   0.08433   0.17636   0.126177  
         O         O         0.44619   0.14490   0.31807   -0.411819           
         C         C         0.53316   0.81034   0.33638   -0.157127           
         C         C         0.53151   0.77502   0.32521   -0.041052           
         H         H         0.55728   0.82890   0.43321   0.134089  
         H         H         0.55492   0.76658   0.41356   0.109596  
         C         C         0.52918   0.01868   0.22279   0.036065  
         C         C         0.44321   0.96457   0.27400   -0.128220           
         C         C         0.44438   0.92988   0.27433   -0.068028           
         C         C         0.47356   0.91239   0.25989   -0.070392           
         C         C         0.53407   0.87609   0.23644   0.428479  
         H         H         0.42004   0.97729   0.28702   0.111488  
         H         H         0.42285   0.91601   0.28830   0.127301  
         O         O         0.56124   0.86191   0.23916   -0.426241           
         C         C         0.46615   0.19528   0.20139   -0.160164           
         C         C         0.46751   0.23075   0.21565   -0.039995           
         H         H         0.44041   0.17933   0.15047   0.134077  
         H         H         0.44241   0.24181   0.17600   0.107384  
         C         C         0.96605   0.49798   0.26005   -0.005570           
         C         C         0.07202   0.49702   0.25678   0.026585  
         N         N         0.14313   0.49688   0.25090   -0.210215           
         C         C         0.17924   0.49711   0.25243   0.191854  
         C         C         0.75046   0.49955   0.23318   -0.238722           
         C         C         0.03669   0.49736   0.25924   -0.006444           
         C         C         0.93049   0.49835   0.26000   0.031638  
         N         N         0.85903   0.49964   0.26530   -0.204924           
         C         C         0.82281   0.49975   0.26269   0.193866  
         C         C         0.25102   0.50034   0.27355   -0.245717           
         C         C         0.50107   0.96556   0.24271   -0.004922           
         C         C         0.49862   0.07204   0.24260   0.033141  
         N         N         0.49752   0.14401   0.24674   -0.199959           
         C         C         0.49815   0.18049   0.25406   0.194163  
         C         C         0.49993   0.75066   0.20793   -0.240149           
         C         C         0.49929   0.03639   0.24144   -0.005008           
         C         C         0.50208   0.93006   0.24407   0.033784  
         N         N         0.50370   0.85844   0.23785   -0.205693           
         C         C         0.50321   0.82168   0.22544   0.190877  
         C         C         0.50019   0.25197   0.27174   -0.239813           
         Ni        Ni        0.50086   0.50230   0.25308   0.461333  
         N         N         0.50068   0.54949   0.24944   -0.361023           
         N         N         0.50090   0.45472   0.25381   -0.358267           
         N         N         0.45330   0.50217   0.25134   -0.361129           
         N         N         0.54840   0.50231   0.25458   -0.360282           
         C         C         0.48141   0.65898   0.71337   0.170060  
         C         C         0.53675   0.63151   0.73928   -0.181014           
         C         C         0.51763   0.60245   0.74033   -0.041644           
         C         C         0.52785   0.56833   0.74945   0.323966  
         C         C         0.51354   0.34048   0.75844   0.170610  
         C         C         0.46049   0.37052   0.75988   -0.182735           
         C         C         0.48014   0.39927   0.75933   -0.043003           
         C         C         0.47060   0.43384   0.75727   0.323857  
         C         C         0.33914   0.48675   0.76552   0.175364  
         C         C         0.36821   0.53968   0.75649   -0.185524           
         C         C         0.39709   0.52033   0.75551   -0.036699           
         C         C         0.43141   0.52958   0.74999   0.321554  
         C         C         0.65967   0.51589   0.74447   0.175712  
         C         C         0.63064   0.46276   0.75242   -0.183453           
         C         C         0.60151   0.48185   0.75197   -0.039310           
         C         C         0.56696   0.47229   0.75452   0.323256  
         C         C         0.51742   0.65966   0.72704   0.174871  
         C         C         0.46250   0.63060   0.71683   -0.185146           
         C         C         0.48205   0.60226   0.73205   -0.038147           
         C         C         0.47189   0.56849   0.74038   0.323272  
         C         C         0.47853   0.34128   0.75991   0.174660  
         C         C         0.53312   0.36879   0.75806   -0.188089           
         C         C         0.51509   0.39853   0.75849   -0.037618           
         C         C         0.52593   0.43276   0.75664   0.323870  
         C         C         0.65952   0.48114   0.74975   0.167372  
         C         C         0.63109   0.53499   0.74513   -0.181993           
         C         C         0.60187   0.51671   0.74945   -0.041816           
         C         C         0.56768   0.52754   0.75262   0.322365  
         C         C         0.33950   0.52164   0.76215   0.169239  
         C         C         0.36753   0.46743   0.76427   -0.182561           
         C         C         0.39679   0.48561   0.76003   -0.039381           
         C         C         0.43097   0.47474   0.75707   0.320482  
         O         O         0.52869   0.69184   0.72445   -0.338175           
         O         O         0.46659   0.30919   0.76077   -0.333851           
         O         O         0.30760   0.53363   0.76670   -0.335553           
         O         O         0.69180   0.46959   0.74984   -0.337243           
         O         O         0.46952   0.69040   0.69801   -0.340158           
         O         O         0.52393   0.30792   0.75847   -0.336295           
         O         O         0.69191   0.52647   0.74005   -0.334790           
         O         O         0.30687   0.47635   0.77024   -0.338726           
         H         H         0.56426   0.63175   0.74704   0.152242  
         H         H         0.43357   0.37134   0.76047   0.151528  
         H         H         0.36848   0.56646   0.75334   0.152204  
         H         H         0.63049   0.43595   0.75498   0.151596  
         H         H         0.43491   0.63000   0.70762   0.151715  
         H         H         0.56001   0.36812   0.75693   0.151319  
         H         H         0.63106   0.56171   0.74131   0.151461  
         H         H         0.36750   0.44071   0.76829   0.152241  
         N         N         0.55952   0.55931   0.75232   -0.376098           
         N         N         0.43916   0.44304   0.75814   -0.375201           
         N         N         0.44019   0.56047   0.74196   -0.372021           
         N         N         0.55771   0.44091   0.75614   -0.371814           
         B         B         0.49899   0.71070   0.70643   0.600826  
         B         B         0.49485   0.28864   0.76007   0.589808  
         B         B         0.28756   0.50547   0.77124   0.587181  
         B         B         0.71165   0.49767   0.74315   0.589487  
         C         C         0.98368   0.46883   0.77211   0.032709  
         C         C         0.03669   0.56088   0.76517   -0.131055           
         C         C         0.07240   0.56219   0.78042   -0.068766           
         C         C         0.08977   0.53227   0.77717   -0.081399           
         C         C         0.12152   0.46837   0.70133   0.424673  
         H         H         0.02343   0.58424   0.76115   0.111919  
         H         H         0.08713   0.58631   0.79417   0.127706  
         O         O         0.13099   0.43987   0.62946   -0.413714           
         C         C         0.79959   0.52152   0.69471   -0.159275           
         C         C         0.76505   0.52211   0.69469   -0.040830           
         H         H         0.81001   0.54091   0.65344   0.120442  
         H         H         0.74969   0.54240   0.65457   0.104582  
         C         C         0.01814   0.53078   0.76000   0.038402  
         C         C         0.96614   0.44003   0.78362   -0.131074           
         C         C         0.93097   0.43934   0.77741   -0.071954           
         C         C         0.91247   0.46814   0.76529   -0.068255           
         C         C         0.87641   0.52947   0.78142   0.423328  
         H         H         0.97990   0.41723   0.79562   0.113303  
         H         H         0.91733   0.41633   0.78061   0.129443  
         O         O         0.86526   0.55831   0.82319   -0.406779           
         C         C         0.19904   0.47632   0.79553   -0.160600           
         C         C         0.23395   0.47759   0.80056   -0.047412           
         H         H         0.18837   0.45529   0.82619   0.132726  
         H         H         0.24965   0.45688   0.83222   0.108743  
         C         C         0.52971   0.98032   0.72684   0.037400  
         C         C         0.44089   0.03619   0.77465   -0.132021           
         C         C         0.44034   0.07077   0.77239   -0.083662           
         C         C         0.46864   0.08764   0.75576   -0.085753           
         C         C         0.52717   0.12434   0.73433   0.433810  
         H         H         0.41852   0.02428   0.79094   0.111162  
         H         H         0.41783   0.08505   0.78280   0.130539  
         O         O         0.55347   0.13794   0.72408   -0.411986           
         C         C         0.47159   0.79607   0.60591   -0.152929           
         C         C         0.46984   0.76101   0.59815   -0.050255           
         H         H         0.44874   0.80519   0.51853   0.136271  
         H         H         0.44509   0.74279   0.50495   0.108349  
         C         C         0.46938   0.01703   0.75881   0.034836  
         C         C         0.55869   0.96178   0.71424   -0.133225           
         C         C         0.55966   0.92741   0.71817   -0.079506           
         C         C         0.53143   0.91033   0.73388   -0.086472           
         C         C         0.47428   0.87430   0.77182   0.431455  
         H         H         0.58100   0.97405   0.69903   0.113374  
         H         H         0.58227   0.91323   0.70862   0.129639  
         O         O         0.45125   0.86010   0.80389   -0.434236           
         C         C         0.52457   0.19743   0.73790   -0.196892           
         C         C         0.52366   0.23222   0.74222   -0.026407           
         H         H         0.54710   0.18445   0.72085   0.131709  
         H         H         0.54578   0.24498   0.72752   0.099962  
         C         C         0.01929   0.46881   0.76296   0.038354  
         C         C         0.96128   0.55772   0.73938   -0.130968           
         C         C         0.92688   0.55706   0.74331   -0.081057           
         C         C         0.91117   0.52779   0.75736   -0.081880           
         C         C         0.87440   0.46548   0.74463   0.436064  
         H         H         0.97239   0.58075   0.72464   0.114545  
         H         H         0.91190   0.57937   0.73716   0.128911  
         O         O         0.85864   0.43709   0.72062   -0.409961           
         C         C         0.19291   0.52992   0.71803   -0.172028           
         C         C         0.22832   0.53149   0.73014   -0.030083           
         H         H         0.17735   0.55026   0.68292   0.129532  
         H         H         0.23920   0.55288   0.70167   0.112183  
         C         C         0.98146   0.52970   0.75403   0.035100  
         C         C         0.03776   0.43914   0.75232   -0.132115           
         C         C         0.07112   0.43907   0.73472   -0.071051           
         C         C         0.08803   0.46960   0.73797   -0.086183           
         C         C         0.12814   0.53462   0.80598   0.425962  
         H         H         0.02598   0.41518   0.75590   0.115998  
         H         H         0.08446   0.41541   0.72016   0.136959  
         O         O         0.14687   0.56373   0.87436   -0.409551           
         C         C         0.80588   0.47147   0.80095   -0.180680           
         C         C         0.77059   0.47133   0.79086   -0.031743           
         H         H         0.82134   0.45184   0.84520   0.125539  
         H         H         0.75947   0.45115   0.82612   0.101340  
         C         C         0.47034   0.98082   0.76021   0.034299  
         C         C         0.55608   0.03463   0.70624   -0.128004           
         C         C         0.55533   0.06952   0.70995   -0.070141           
         C         C         0.52647   0.08724   0.72855   -0.070931           
         C         C         0.46580   0.12315   0.73869   0.426051  
         H         H         0.57885   0.02156   0.68933   0.110000  
         H         H         0.57698   0.08337   0.69691   0.126050  
         O         O         0.43675   0.13454   0.71550   -0.406446           
         C         C         0.53320   0.80833   0.83743   -0.157756           
         C         C         0.53158   0.77283   0.82250   -0.039916           
         H         H         0.55737   0.82680   0.93420   0.135925  
         H         H         0.55508   0.76397   0.90754   0.109546  
         C         C         0.52856   0.01632   0.72376   0.029799  
         C         C         0.44273   0.96240   0.77649   -0.129140           
         C         C         0.44404   0.92785   0.77865   -0.067783           
         C         C         0.47327   0.91045   0.76436   -0.071044           
         C         C         0.53381   0.87421   0.74034   0.429220  
         H         H         0.41951   0.97512   0.78864   0.111759  
         H         H         0.42261   0.91405   0.79365   0.126814  
         O         O         0.56096   0.86002   0.74229   -0.424990           
         C         C         0.46811   0.19827   0.77894   -0.169330           
         C         C         0.46744   0.23290   0.78035   -0.038858           
         H         H         0.44605   0.18588   0.79325   0.128006  
         H         H         0.44473   0.24624   0.79728   0.104405  
         C         C         0.96539   0.49899   0.76329   -0.005221           
         C         C         0.07122   0.50067   0.75925   0.027622  
         N         N         0.14204   0.50180   0.75125   -0.207692           
         C         C         0.17810   0.50248   0.75255   0.185085  
         C         C         0.74955   0.49697   0.74159   -0.242598           
         C         C         0.03590   0.50011   0.76156   -0.008946           
         C         C         0.92982   0.49834   0.76273   0.031291  
         N         N         0.85739   0.49704   0.75732   -0.202322           
         C         C         0.82087   0.49654   0.75136   0.203017  
         C         C         0.24951   0.50533   0.77088   -0.243870           
         C         C         0.50051   0.96332   0.74404   -0.004896           
         C         C         0.49796   0.06949   0.74245   0.030557  
         N         N         0.49682   0.14246   0.74660   -0.194526           
         C         C         0.49653   0.17929   0.75447   0.213703  
         C         C         0.49984   0.74874   0.70563   -0.241393           
         C         C         0.49864   0.03393   0.74186   -0.001151           
         C         C         0.50166   0.92795   0.74670   0.033539  
         N         N         0.50356   0.85669   0.74360   -0.202762           
         C         C         0.50305   0.81992   0.72961   0.187160  
         C         C         0.49502   0.25083   0.76132   -0.248737           
         Ni        Ni        0.49928   0.50101   0.75394   0.461489  
         N         N         0.49985   0.54809   0.74944   -0.362328           
         N         N         0.49856   0.45384   0.75574   -0.361631           
         N         N         0.45176   0.50175   0.75281   -0.360970           
         N         N         0.54677   0.50031   0.75461   -0.361063 

