
##########################################################################
#               Crystallographic Information Format file
#               Produced by PyCifRW module
#
#  This is a CIF file.  CIF has been adopted by the International
#  Union of Crystallography as the standard for data archiving and
#  transmission.
#
#  For information on this file format, follow the CIF links at
#  http://www.iucr.org
##########################################################################

data_image0

_cell_length_a                          35.8438
_cell_length_b                          35.8219
_cell_length_c                          7.91948
_cell_angle_alpha                       68.6438
_cell_angle_beta                        114.311
_cell_angle_gamma                       91.5107
_symmetry_space_group_name_H-M          'P 1'
_space_group_name_Hall                  'P 1'
loop_
  _atom_site_type_symbol
  _atom_site_label
  _atom_site_fract_x
  _atom_site_fract_y
  _atom_site_fract_z
  _atom_site_charge
         C         C         0.49996   0.67988   0.69121   0.173587  
         C         C         0.55859   0.64801   0.68171   -0.183347           
         C         C         0.53642   0.61524   0.68154   -0.041590           
         C         C         0.54656   0.57683   0.67656   0.331660  
         O         O         0.55275   0.71642   0.68670   -0.334281           
         H         H         0.58842   0.64817   0.67667   0.152905  
         C         C         0.33532   0.47683   0.71569   0.176272  
         C         C         0.36870   0.53773   0.70782   -0.183074           
         C         C         0.40016   0.51697   0.69984   -0.045414           
         C         C         0.43845   0.52926   0.69071   0.317309  
         O         O         0.30110   0.52826   0.72499   -0.333895           
         H         H         0.37012   0.56789   0.71007   0.153655  
         N         N         0.58144   0.56715   0.67146   -0.379285           
         C         C         0.53388   0.31586   0.70563   0.172789  
         C         C         0.47334   0.34711   0.70541   -0.185154           
         C         C         0.49369   0.38129   0.69731   -0.032703           
         C         C         0.48187   0.42083   0.68900   0.335952  
         O         O         0.48251   0.27780   0.71419   -0.335433           
         H         H         0.44305   0.34624   0.70599   0.152396  
         C         C         0.69408   0.52139   0.66053   0.174172  
         C         C         0.66128   0.45988   0.67095   -0.182616           
         C         C         0.62899   0.48079   0.67247   -0.037706           
         C         C         0.59024   0.46874   0.67681   0.332422  
         O         O         0.72928   0.46951   0.65994   -0.338298           
         H         H         0.66060   0.42941   0.67283   0.151597  
         N         N         0.44677   0.43090   0.69154   -0.372256           
         C         C         0.53895   0.68006   0.68679   0.165972  
         C         C         0.47786   0.64752   0.69187   -0.183067           
         C         C         0.49741   0.61487   0.68665   -0.034161           
         C         C         0.48477   0.57600   0.68494   0.336142  
         O         O         0.48873   0.71629   0.69265   -0.338474           
         H         H         0.44802   0.64732   0.69700   0.152283  
         C         C         0.69345   0.48164   0.66381   0.169184  
         C         C         0.66251   0.54220   0.66393   -0.191587           
         C         C         0.62955   0.52057   0.66925   -0.036246           
         C         C         0.59105   0.53174   0.67103   0.332722  
         O         O         0.73002   0.53463   0.65334   -0.327162           
         H         H         0.66301   0.57269   0.66182   0.154235  
         N         N         0.44956   0.56497   0.69048   -0.386194           
         C         C         0.49482   0.31486   0.70964   0.173802  
         C         C         0.55446   0.34923   0.69960   -0.183025           
         C         C         0.53307   0.38202   0.69561   -0.042493           
         C         C         0.54432   0.42171   0.68682   0.330893  
         O         O         0.54642   0.27946   0.70741   -0.335765           
         H         H         0.58442   0.35048   0.69590   0.151932  
         C         C         0.33640   0.51623   0.71646   0.177358  
         C         C         0.36609   0.45607   0.70671   -0.181370           
         C         C         0.39905   0.47744   0.69891   -0.037684           
         C         C         0.43694   0.46653   0.69047   0.335918  
         O         O         0.29945   0.46366   0.72475   -0.334865           
         H         H         0.36497   0.42575   0.70672   0.152271  
         N         N         0.57978   0.43257   0.68350   -0.378724           
         B         B         0.52142   0.73878   0.68879   0.587540  
         N         N         0.51501   0.55400   0.67927   -0.416946           
         B         B         0.51437   0.25615   0.71122   0.581424  
         N         N         0.51289   0.44432   0.68114   -0.440251           
         B         B         0.27865   0.49536   0.73286   0.574192  
         N         N         0.45964   0.49847   0.68467   -0.421358           
         B         B         0.75200   0.50220   0.65688   0.585064  
         N         N         0.56813   0.50007   0.67403   -0.429846           
         C         C         0.03604   0.49415   0.70596   0.024015  
         C         C         0.01863   0.56394   0.46533   -0.059983           
         C         C         0.05252   0.42420   0.94393   -0.079279           
         C         C         0.04651   0.52825   0.58234   -0.054364           
         C         C         0.08694   0.52631   0.57544   0.429583  
         C         C         0.06338   0.45721   0.82130   -0.067574           
         C         C         0.10406   0.45354   0.81695   0.427393  
         C         C         0.15661   0.48991   0.72145   0.190747  
         C         C         0.17763   0.52203   0.75445   -0.158022           
         C         C         0.21689   0.52400   0.75933   -0.053804           
         C         C         0.17550   0.45902   0.70247   -0.154967           
         C         C         0.21527   0.46080   0.71331   -0.032172           
         C         C         0.23634   0.49349   0.73796   -0.236761           
         O         O         0.09594   0.55473   0.46095   -0.422330           
         O         O         0.12754   0.42132   0.90689   -0.408658           
         N         N         0.11505   0.48980   0.70657   -0.209447           
         H         H         0.02751   0.58953   0.37098   0.129046  
         H         H         0.16299   0.54537   0.77357   0.131397  
         H         H         0.23274   0.54939   0.78089   0.109943  
         H         H         0.07421   0.39615   0.03243   0.134052  
         H         H         0.15901   0.43451   0.67512   0.138748  
         H         H         0.22980   0.43687   0.69698   0.110233  
         C         C         0.99706   0.49690   0.71182   0.020805  
         C         C         0.01458   0.42727   0.95390   -0.072207           
         C         C         0.97994   0.56646   0.46852   -0.073686           
         C         C         0.98674   0.46317   0.83807   -0.073773           
         C         C         0.94667   0.46584   0.84867   0.433281  
         C         C         0.96916   0.53349   0.59103   -0.080306           
         C         C         0.92781   0.53675   0.58688   0.417609  
         C         C         0.87603   0.50214   0.69218   0.192027  
         C         C         0.85510   0.46933   0.67116   -0.154685           
         C         C         0.81508   0.46953   0.65696   -0.038487           
         C         C         0.85658   0.53521   0.69355   -0.176452           
         C         C         0.81662   0.53499   0.68044   -0.034449           
         C         C         0.79521   0.50217   0.66250   -0.245283           
         O         O         0.93844   0.43897   0.97203   -0.417122           
         O         O         0.90315   0.56832   0.48090   -0.418156           
         N         N         0.91769   0.50166   0.70783   -0.209279           
         H         H         0.00622   0.40181   0.05178   0.136243  
         H         H         0.86989   0.44447   0.66268   0.136661  
         H         H         0.79881   0.44414   0.63934   0.110418  
         H         H         0.95753   0.59396   0.37485   0.135731  
         H         H         0.87225   0.56107   0.70315   0.121535  
         H         H         0.80224   0.56041   0.68761   0.117821  
         C         C         0.51683   0.01267   0.75103   0.020981  
         C         C         0.44210   0.02286   0.56169   -0.086569           
         C         C         0.59142   0.00156   0.94378   -0.065609           
         C         C         0.47782   0.03621   0.66694   -0.071847           
         C         C         0.47436   0.07564   0.68328   0.425908  
         C         C         0.55322   0.02514   0.86272   -0.053958           
         C         C         0.55091   0.06333   0.89230   0.437531  
         C         C         0.51178   0.13144   0.75507   0.196644  
         C         C         0.47974   0.15191   0.76080   -0.171099           
         C         C         0.48068   0.19232   0.73962   -0.030351           
         C         C         0.54411   0.15165   0.72495   -0.155312           
         C         C         0.54523   0.19165   0.70968   -0.040188           
         C         C         0.51358   0.21272   0.71729   -0.249716           
         O         O         0.44033   0.09529   0.61684   -0.416812           
         O         O         0.58046   0.07223   0.01182   -0.414822           
         N         N         0.51202   0.08967   0.77414   -0.211975           
         H         H         0.41241   0.04124   0.50138   0.135840  
         H         H         0.45435   0.13694   0.78202   0.128214  
         H         H         0.45578   0.20789   0.74542   0.116417  
         H         H         0.61911   0.01203   0.02711   0.130152  
         H         H         0.56846   0.13608   0.71592   0.133973  
         H         H         0.57100   0.20662   0.69091   0.114229  
         C         C         0.51934   0.97569   0.72484   0.018215  
         C         C         0.59388   0.96498   0.91888   -0.066293           
         C         C         0.44460   0.98689   0.53197   -0.070271           
         C         C         0.55830   0.95178   0.81133   -0.066030           
         C         C         0.56132   0.91183   0.79782   0.428612  
         C         C         0.48282   0.96358   0.61108   -0.072646           
         C         C         0.48488   0.92663   0.57145   0.429307  
         C         C         0.52360   0.86064   0.67937   0.182895  
         C         C         0.55478   0.84315   0.65730   -0.155847           
         C         C         0.55405   0.80390   0.66067   -0.036083           
         C         C         0.49177   0.83901   0.70445   -0.155412           
         C         C         0.49119   0.80017   0.70546   -0.050767           
         C         C         0.52244   0.78175   0.68553   -0.238580           
         O         O         0.59415   0.88889   0.88398   -0.409995           
         O         O         0.45488   0.91855   0.44951   -0.423392           
         N         N         0.52356   0.90067   0.68288   -0.215854           
         H         H         0.62347   0.94604   0.98416   0.130955  
         H         H         0.57921   0.85983   0.63646   0.135037  
         H         H         0.57824   0.79043   0.64233   0.112829  
         H         H         0.41698   0.97648   0.44756   0.137885  
         H         H         0.46791   0.85250   0.72409   0.128775  
         H         H         0.46649   0.78357   0.72587   0.109668  
         Cu        Cu        0.48248   0.49849   0.18992   0.663574  
         C         C         0.46721   0.68121   0.18012   0.173404  
         C         C         0.52700   0.64839   0.18258   -0.183978           
         C         C         0.50488   0.61552   0.18164   -0.033289           
         C         C         0.51551   0.57624   0.18498   0.335548  
         O         O         0.52076   0.71703   0.18554   -0.333822           
         H         H         0.55761   0.64778   0.18594   0.151435  
         C         C         0.30389   0.47695   0.22781   0.175237  
         C         C         0.33646   0.53873   0.20923   -0.180058           
         C         C         0.36831   0.51773   0.20481   -0.035834           
         C         C         0.40667   0.52984   0.19531   0.330233  
         O         O         0.26896   0.52930   0.22663   -0.338153           
         H         H         0.33725   0.56930   0.20610   0.151495  
         N         N         0.55053   0.56578   0.18333   -0.373244           
         C         C         0.49732   0.31624   0.19934   0.172485  
         C         C         0.43868   0.34844   0.20739   -0.183516           
         C         C         0.46007   0.38192   0.19880   -0.040980           
         C         C         0.44978   0.42088   0.19891   0.331390  
         O         O         0.44585   0.27865   0.21707   -0.334182           
         H         H         0.40901   0.34834   0.21397   0.152892  
         C         C         0.66203   0.52048   0.16601   0.176504  
         C         C         0.62875   0.45958   0.16673   -0.183765           
         C         C         0.59663   0.47995   0.17246   -0.043298           
         C         C         0.55787   0.46789   0.17794   0.318209  
         O         O         0.69718   0.46960   0.15841   -0.335974           
         H         H         0.62774   0.42960   0.16234   0.153179  
         N         N         0.41529   0.43083   0.20672   -0.378944           
         C         C         0.50679   0.68092   0.18188   0.173028  
         C         C         0.44506   0.64897   0.17860   -0.184357           
         C         C         0.46522   0.61580   0.17967   -0.041566           
         C         C         0.45283   0.57657   0.18359   0.331046  
         O         O         0.45591   0.71757   0.18259   -0.335881           
         H         H         0.41484   0.64896   0.17932   0.152759  
         C         C         0.66128   0.48124   0.16323   0.177877  
         C         C         0.63067   0.54090   0.17204   -0.182492           
         C         C         0.59772   0.51929   0.17552   -0.038318           
         C         C         0.55972   0.53029   0.18160   0.335379  
         O         O         0.69805   0.53401   0.16129   -0.333896           
         H         H         0.63127   0.57110   0.17343   0.151948  
         N         N         0.41729   0.56607   0.18705   -0.377744           
         C         C         0.45874   0.31580   0.20802   0.166087  
         C         C         0.51861   0.34922   0.18985   -0.184452           
         C         C         0.49876   0.38229   0.19042   -0.036114           
         C         C         0.51119   0.42153   0.18578   0.338410  
         O         O         0.50907   0.27958   0.20235   -0.337453           
         H         H         0.54819   0.34947   0.18233   0.151661  
         C         C         0.30449   0.51698   0.22076   0.166930  
         C         C         0.33513   0.45594   0.22278   -0.191901           
         C         C         0.36770   0.47771   0.21106   -0.037639           
         C         C         0.40574   0.46650   0.20508   0.332621  
         O         O         0.26832   0.46371   0.23990   -0.326913           
         H         H         0.33472   0.42515   0.22881   0.154299  
         N         N         0.54642   0.43225   0.17868   -0.386437           
         B         B         0.48934   0.73930   0.18790   0.583062  
         N         N         0.48379   0.55356   0.18783   -0.441502           
         B         B         0.47709   0.25647   0.21338   0.588048  
         N         N         0.48102   0.44385   0.19045   -0.418407           
         B         B         0.24647   0.49637   0.23527   0.585911  
         N         N         0.42843   0.49837   0.19717   -0.430463           
         B         B         0.71959   0.50248   0.15568   0.576199  
         N         N         0.53659   0.49880   0.18324   -0.422556           
         C         C         0.00257   0.50309   0.19413   0.021408  
         C         C         0.98447   0.57251   0.95053   -0.072533           
         C         C         0.01979   0.43331   0.43596   -0.073360           
         C         C         0.01270   0.53689   0.06737   -0.072943           
         C         C         0.05282   0.53452   0.05690   0.432108  
         C         C         0.03049   0.46651   0.31426   -0.082703           
         C         C         0.07171   0.46330   0.31731   0.418574  
         C         C         0.12318   0.49777   0.20931   0.191546  
         C         C         0.14461   0.53042   0.22775   -0.153299           
         C         C         0.18441   0.52962   0.23913   -0.040052           
         C         C         0.14192   0.46439   0.20702   -0.177285           
         C         C         0.18170   0.46393   0.21817   -0.034991           
         C         C         0.20361   0.49655   0.23375   -0.244766           
         O         O         0.06108   0.56170   0.93485   -0.416572           
         O         O         0.09633   0.43172   0.42268   -0.416102           
         N         N         0.08174   0.49853   0.19622   -0.208562           
         H         H         0.99262   0.59796   0.85168   0.135846  
         H         H         0.13034   0.55575   0.23514   0.137594  
         H         H         0.20104   0.55496   0.25368   0.111198  
         H         H         0.04216   0.40579   0.52779   0.135310  
         H         H         0.12572   0.43881   0.19796   0.120376  
         H         H         0.19541   0.43819   0.21052   0.117964  
         C         C         0.96357   0.50558   0.20016   0.024933  
         C         C         0.98126   0.43563   0.44062   -0.059653           
         C         C         0.94641   0.57530   0.95979   -0.079452           
         C         C         0.95341   0.47136   0.32459   -0.055018           
         C         C         0.91316   0.47306   0.33320   0.429845  
         C         C         0.93579   0.54226   0.08350   -0.067430           
         C         C         0.89492   0.54556   0.08674   0.426365  
         C         C         0.84284   0.50863   0.18299   0.191915  
         C         C         0.82231   0.47646   0.14782   -0.157155           
         C         C         0.78273   0.47425   0.13873   -0.051674           
         C         C         0.82336   0.53924   0.20128   -0.157434           
         C         C         0.78329   0.53722   0.18616   -0.031427           
         C         C         0.76252   0.50457   0.15787   -0.238551           
         O         O         0.90480   0.44474   0.45098   -0.423053           
         O         O         0.87090   0.57743   0.99413   -0.407083           
         N         N         0.88453   0.50919   0.19986   -0.210291           
         H         H         0.97244   0.40993   0.53478   0.129893  
         H         H         0.83759   0.45332   0.12993   0.128736  
         H         H         0.76717   0.44890   0.11469   0.109844  
         H         H         0.92443   0.60313   0.86946   0.134270  
         H         H         0.83962   0.56375   0.23084   0.142817  
         H         H         0.76819   0.56103   0.20082   0.109830  
         C         C         0.48271   0.02086   0.16214   0.016970  
         C         C         0.40814   0.03112   0.96992   -0.063015           
         C         C         0.55748   0.00994   0.35358   -0.069860           
         C         C         0.44372   0.04476   0.07450   -0.069413           
         C         C         0.44075   0.08489   0.08572   0.428488  
         C         C         0.51927   0.03328   0.27367   -0.071750           
         C         C         0.51724   0.07061   0.31020   0.429961  
         C         C         0.47765   0.13562   0.21030   0.181476  
         C         C         0.44693   0.15085   0.24316   -0.157755           
         C         C         0.44682   0.18946   0.24757   -0.033593           
         C         C         0.50823   0.15890   0.18133   -0.153300           
         C         C         0.50762   0.19735   0.18490   -0.051796           
         C         C         0.47683   0.21353   0.21619   -0.238907           
         O         O         0.40788   0.10789   -0.00250  -0.410657           
         O         O         0.54735   0.07933   0.42891   -0.423531           
         N         N         0.47832   0.09605   0.20166   -0.214525           
         H         H         0.37845   0.04997   0.90344   0.130846  
         H         H         0.42354   0.13272   0.26704   0.133995  
         H         H         0.42306   0.20085   0.27574   0.113058  
         H         H         0.58509   0.02079   0.43471   0.139085  
         H         H         0.53199   0.14706   0.15531   0.127152  
         H         H         0.53088   0.21564   0.15834   0.107538  
         C         C         0.48524   0.98342   0.14001   0.019344  
         C         C         0.55999   0.97346   0.32844   -0.088337           
         C         C         0.41067   0.99394   0.95034   -0.067201           
         C         C         0.52428   0.95985   0.22569   -0.069514           
         C         C         0.52786   0.91997   0.21386   0.424068  
         C         C         0.44883   0.97019   0.03341   -0.051896           
         C         C         0.45097   0.93095   0.01289   0.437414  
         C         C         0.49141   0.86353   0.14962   0.195614  
         C         C         0.52267   0.84402   0.13540   -0.170576           
         C         C         0.52255   0.80364   0.15661   -0.029116           
         C         C         0.46071   0.84207   0.18999   -0.153553           
         C         C         0.46028   0.80212   0.20510   -0.042893           
         C         C         0.49096   0.78215   0.18733   -0.249590           
         O         O         0.56189   0.90014   0.28035   -0.418409           
         O         O         0.42075   0.92050   0.90338   -0.416150           
         N         N         0.49028   0.90537   0.12810   -0.208095           
         H         H         0.58962   0.95489   0.39018   0.135582  
         H         H         0.54692   0.85997   0.10796   0.126066  
         H         H         0.54692   0.78903   0.14379   0.113914  
         H         H         0.38299   0.98292   0.87069   0.130117  
         H         H         0.43733   0.85671   0.20814   0.133260  
         H         H         0.43596   0.78595   0.23328   0.112853  
         Cu        Cu        0.51368   0.49946   0.67769   0.661866 

