
##########################################################################
#               Crystallographic Information Format file
#               Produced by PyCifRW module
#
#  This is a CIF file.  CIF has been adopted by the International
#  Union of Crystallography as the standard for data archiving and
#  transmission.
#
#  For information on this file format, follow the CIF links at
#  http://www.iucr.org
##########################################################################

data_image0

_cell_length_a                          35.9109
_cell_length_b                          35.888
_cell_length_c                          8.13181
_cell_angle_alpha                       75.0505
_cell_angle_beta                        116.571
_cell_angle_gamma                       90.787
_symmetry_space_group_name_H-M          'P 1'
_space_group_name_Hall                  'P 1'
loop_
  _atom_site_type_symbol
  _atom_site_label
  _atom_site_fract_x
  _atom_site_fract_y
  _atom_site_fract_z
  _atom_site_charge
         C         C         0.48597   0.67840   0.70986   0.168878  
         C         C         0.54431   0.64701   0.69375   -0.189786           
         C         C         0.52311   0.61396   0.69696   -0.035574           
         C         C         0.53367   0.57551   0.69262   0.322655  
         O         O         0.53743   0.71525   0.70022   -0.335738           
         H         H         0.57352   0.64749   0.68411   0.150873  
         C         C         0.32355   0.47773   0.71301   0.168725  
         C         C         0.35726   0.53785   0.71834   -0.180778           
         C         C         0.38931   0.51699   0.71356   -0.038457           
         C         C         0.42772   0.52877   0.70922   0.312255  
         O         O         0.28875   0.52937   0.72036   -0.335714           
         H         H         0.35817   0.56783   0.72301   0.152630  
         N         N         0.56835   0.56627   0.68614   -0.373930           
         C         C         0.51988   0.31950   0.68473   0.171736  
         C         C         0.45920   0.35126   0.68199   -0.190603           
         C         C         0.48084   0.38412   0.68718   -0.032142           
         C         C         0.47003   0.42261   0.69114   0.322727  
         O         O         0.46685   0.28308   0.67472   -0.336286           
         H         H         0.42868   0.35107   0.67927   0.151813  
         C         C         0.67936   0.52162   0.66395   0.169411  
         C         C         0.64666   0.46092   0.66350   -0.180143           
         C         C         0.61482   0.48122   0.67246   -0.037863           
         C         C         0.57690   0.46905   0.68164   0.314222  
         O         O         0.71450   0.47060   0.65394   -0.341052           
         H         H         0.64584   0.43098   0.65809   0.151931  
         N         N         0.43509   0.43201   0.69526   -0.373048           
         C         C         0.52433   0.67885   0.70077   0.171653  
         C         C         0.46476   0.64586   0.71253   -0.183983           
         C         C         0.48476   0.61340   0.70555   -0.038375           
         C         C         0.47289   0.57457   0.70496   0.322600  
         O         O         0.47455   0.71459   0.71512   -0.336766           
         H         H         0.43551   0.64515   0.72198   0.151025  
         C         C         0.67874   0.48248   0.65998   0.172299  
         C         C         0.64811   0.54188   0.67331   -0.182629           
         C         C         0.61553   0.52026   0.67679   -0.038369           
         C         C         0.57770   0.53093   0.68483   0.319616  
         O         O         0.71507   0.53495   0.65745   -0.334883           
         H         H         0.64862   0.57183   0.67856   0.153670  
         N         N         0.43791   0.56426   0.71031   -0.374103           
         C         C         0.48015   0.31931   0.68065   0.171681  
         C         C         0.54131   0.35189   0.68794   -0.184945           
         C         C         0.52025   0.38440   0.68869   -0.039802           
         C         C         0.53199   0.42319   0.68980   0.322585  
         O         O         0.53210   0.28327   0.68294   -0.339222           
         H         H         0.57162   0.35257   0.68845   0.151417  
         C         C         0.32459   0.51684   0.71768   0.174533  
         C         C         0.35499   0.45697   0.70713   -0.180870           
         C         C         0.38823   0.47804   0.70773   -0.042114           
         C         C         0.42618   0.46713   0.70092   0.322827  
         O         O         0.28715   0.46510   0.71499   -0.339283           
         H         H         0.35409   0.42703   0.70176   0.151214  
         N         N         0.56709   0.43334   0.68508   -0.376827           
         B         B         0.50648   0.73713   0.70818   0.589353  
         N         N         0.50295   0.55199   0.69792   -0.352685           
         B         B         0.49932   0.26100   0.67804   0.588372  
         N         N         0.50135   0.44591   0.69189   -0.355373           
         B         B         0.26569   0.49734   0.71768   0.587213  
         N         N         0.44976   0.49822   0.70218   -0.365958           
         B         B         0.73679   0.50315   0.65338   0.583845  
         N         N         0.55469   0.49958   0.68794   -0.367043           
         C         C         0.02135   0.50094   0.69476   0.018441  
         C         C         0.01811   0.57060   0.64661   -0.079677           
         C         C         0.02457   0.43129   0.74606   -0.061947           
         C         C         0.03888   0.53596   0.66674   -0.067767           
         C         C         0.07845   0.53682   0.65121   0.420104  
         C         C         0.04260   0.46554   0.72053   -0.063176           
         C         C         0.08528   0.46407   0.73585   0.428149  
         C         C         0.14205   0.49977   0.69713   0.196184  
         C         C         0.16762   0.52894   0.74919   -0.154703           
         C         C         0.20683   0.52824   0.75411   -0.045712           
         C         C         0.15687   0.46998   0.65087   -0.173855           
         C         C         0.19693   0.46879   0.66447   -0.032761           
         C         C         0.22267   0.49797   0.71423   -0.234037           
         O         O         0.09065   0.56804   0.60426   -0.404238           
         O         O         0.10605   0.43277   0.78528   -0.399985           
         N         N         0.10105   0.50037   0.69163   -0.209311           
         H         H         0.03246   0.59717   0.62623   0.132076  
         H         H         0.15683   0.55228   0.78423   0.125286  
         H         H         0.22579   0.55146   0.79271   0.109879  
         H         H         0.04155   0.40427   0.76632   0.134968  
         H         H         0.13766   0.44748   0.60671   0.121937  
         H         H         0.20810   0.44502   0.63188   0.104325  
         C         C         0.98222   0.50134   0.69958   0.013734  
         C         C         0.98613   0.43151   0.75276   -0.063230           
         C         C         0.97911   0.57116   0.64736   -0.071836           
         C         C         0.96533   0.46608   0.73337   -0.069463           
         C         C         0.92704   0.46563   0.75884   0.429120  
         C         C         0.96087   0.53695   0.67141   -0.069229           
         C         C         0.91810   0.53857   0.65476   0.421938  
         C         C         0.86179   0.50238   0.69272   0.180020  
         C         C         0.83678   0.47361   0.62995   -0.153012           
         C         C         0.79678   0.47381   0.61703   -0.053064           
         C         C         0.84579   0.53176   0.73651   -0.173090           
         C         C         0.80510   0.53246   0.71562   -0.032066           
         C         C         0.77993   0.50338   0.65749   -0.233143           
         O         O         0.91647   0.43517   0.82636   -0.410012           
         O         O         0.89651   0.56983   0.59848   -0.404225           
         N         N         0.90317   0.50234   0.70376   -0.208629           
         H         H         0.97216   0.40475   0.77468   0.134923  
         H         H         0.84819   0.45154   0.58893   0.131128  
         H         H         0.77811   0.45093   0.57052   0.111603  
         H         H         0.96227   0.59828   0.62697   0.131808  
         H         H         0.86444   0.55429   0.78466   0.128616  
         H         H         0.79324   0.55535   0.75129   0.114173  
         C         C         0.50520   0.01753   0.70578   0.021015  
         C         C         0.43614   0.01606   0.68854   -0.070332           
         C         C         0.57443   0.01819   0.72356   -0.071962           
         C         C         0.47097   0.03574   0.70805   -0.069186           
         C         C         0.47320   0.07455   0.74148   0.422694  
         C         C         0.53966   0.03754   0.71260   -0.077606           
         C         C         0.53809   0.07955   0.69725   0.423734  
         C         C         0.50389   0.13721   0.71624   0.188147  
         C         C         0.46549   0.15942   0.65103   -0.163479           
         C         C         0.46419   0.19869   0.64183   -0.035948           
         C         C         0.54070   0.15546   0.77089   -0.158225           
         C         C         0.53852   0.19523   0.75107   -0.038002           
         C         C         0.50041   0.21774   0.68699   -0.235932           
         O         O         0.44842   0.08702   0.78624   -0.416558           
         O         O         0.56423   0.09843   0.66744   -0.389556           
         N         N         0.50509   0.09657   0.71910   -0.204283           
         H         H         0.41036   0.03004   0.69518   0.130991  
         H         H         0.43658   0.14628   0.60842   0.133993  
         H         H         0.43419   0.21496   0.59569   0.113625  
         H         H         0.60015   0.03452   0.72282   0.135710  
         H         H         0.57090   0.13917   0.82553   0.134666  
         H         H         0.56739   0.20881   0.79137   0.110812  
         C         C         0.50495   0.97857   0.69578   0.021509  
         C         C         0.57617   0.97831   0.73710   -0.078142           
         C         C         0.43402   0.97912   0.65701   -0.074399           
         C         C         0.54156   0.95866   0.72123   -0.068470           
         C         C         0.54389   0.91621   0.74761   0.426357  
         C         C         0.46821   0.96025   0.66133   -0.072216           
         C         C         0.46570   0.92268   0.61490   0.426084  
         C         C         0.50497   0.85984   0.68066   0.180379  
         C         C         0.53510   0.84186   0.65181   -0.167527           
         C         C         0.53619   0.80232   0.66593   -0.031912           
         C         C         0.47562   0.83810   0.71970   -0.157917           
         C         C         0.47621   0.79898   0.72642   -0.043409           
         C         C         0.50667   0.78015   0.70224   -0.244713           
         O         O         0.57779   0.89608   0.82580   -0.398993           
         O         O         0.43194   0.91149   0.52630   -0.402035           
         N         N         0.50484   0.90032   0.67842   -0.212516           
         H         H         0.60420   0.96231   0.75798   0.135444  
         H         H         0.55759   0.85822   0.61811   0.130277  
         H         H         0.55962   0.78884   0.64225   0.112525  
         H         H         0.40605   0.96452   0.63283   0.141442  
         H         H         0.45287   0.85135   0.74731   0.131204  
         H         H         0.45327   0.78248   0.75679   0.110534  
         Ni        Ni        0.49798   0.49993   0.19562   0.464883  
         C         C         0.48213   0.67925   0.20877   0.173892  
         C         C         0.54087   0.64815   0.19427   -0.188140           
         C         C         0.51993   0.61488   0.19806   -0.033758           
         C         C         0.53028   0.57635   0.19316   0.320502  
         O         O         0.53323   0.71661   0.19900   -0.336497           
         H         H         0.57019   0.64880   0.18547   0.150888  
         C         C         0.31995   0.47947   0.21919   0.170237  
         C         C         0.35239   0.54033   0.21227   -0.178490           
         C         C         0.38488   0.51920   0.21144   -0.038493           
         C         C         0.42345   0.53063   0.20734   0.313815  
         O         O         0.28389   0.53146   0.21658   -0.341041           
         H         H         0.35271   0.57070   0.21035   0.151345  
         N         N         0.56474   0.56679   0.18560   -0.371712           
         C         C         0.51364   0.32077   0.17913   0.174874  
         C         C         0.45520   0.35165   0.19681   -0.188390           
         C         C         0.47617   0.38492   0.19389   -0.035997           
         C         C         0.46582   0.42346   0.19884   0.320281  
         O         O         0.46289   0.28325   0.19190   -0.338832           
         H         H         0.42581   0.35090   0.20489   0.149869  
         C         C         0.67512   0.52039   0.16413   0.170610  
         C         C         0.64143   0.46024   0.16222   -0.180559           
         C         C         0.60992   0.48117   0.17047   -0.041081           
         C         C         0.57174   0.46961   0.17768   0.314333  
         O         O         0.70913   0.46895   0.15103   -0.338225           
         H         H         0.63996   0.43038   0.15558   0.152924  
         N         N         0.43135   0.43308   0.20607   -0.374670           
         C         C         0.52053   0.67999   0.19990   0.168372  
         C         C         0.46113   0.64665   0.21145   -0.188017           
         C         C         0.48149   0.61432   0.20584   -0.042373           
         C         C         0.46938   0.57568   0.20434   0.324011  
         O         O         0.47040   0.71521   0.21451   -0.337096           
         H         H         0.43170   0.64578   0.21909   0.151581  
         C         C         0.67386   0.48127   0.15942   0.174484  
         C         C         0.64404   0.54129   0.17160   -0.181389           
         C         C         0.61110   0.52020   0.17449   -0.040391           
         C         C         0.57343   0.53142   0.18224   0.320736  
         O         O         0.71104   0.53313   0.15779   -0.335480           
         H         H         0.64474   0.57139   0.17433   0.153621  
         N         N         0.43407   0.56598   0.20779   -0.376000           
         C         C         0.47547   0.31990   0.19016   0.167648  
         C         C         0.53447   0.35346   0.17554   -0.185766           
         C         C         0.51442   0.38556   0.18438   -0.039285           
         C         C         0.52645   0.42422   0.18523   0.323584  
         O         O         0.52534   0.28489   0.17271   -0.336458           
         H         H         0.56356   0.35462   0.16474   0.150129  
         C         C         0.32012   0.51903   0.21584   0.171504  
         C         C         0.35166   0.45857   0.21608   -0.182224           
         C         C         0.38435   0.47989   0.21200   -0.039822           
         C         C         0.42235   0.46858   0.20690   0.322086  
         O         O         0.28408   0.46648   0.22527   -0.335628           
         H         H         0.35163   0.42824   0.21771   0.152558  
         N         N         0.56142   0.43413   0.17877   -0.376418           
         B         B         0.50191   0.73817   0.20638   0.589244  
         N         N         0.49938   0.55294   0.19811   -0.353007           
         B         B         0.49397   0.26180   0.18194   0.594638  
         N         N         0.49668   0.44689   0.19335   -0.352088           
         B         B         0.26190   0.49879   0.22226   0.583629  
         N         N         0.44565   0.49970   0.20384   -0.365123           
         B         B         0.73181   0.50121   0.14961   0.580434  
         N         N         0.54994   0.50036   0.18452   -0.366617           
         C         C         0.01769   0.49850   0.20570   0.015466  
         C         C         0.01603   0.56750   0.17638   -0.075516           
         C         C         0.01972   0.42940   0.23999   -0.070320           
         C         C         0.03670   0.53305   0.19388   -0.072566           
         C         C         0.07981   0.53227   0.21468   0.421421  
         C         C         0.03753   0.46386   0.21550   -0.071237           
         C         C         0.07508   0.46467   0.18373   0.423576  
         C         C         0.13690   0.49863   0.19130   0.190095  
         C         C         0.15322   0.53376   0.14886   -0.172647           
         C         C         0.19371   0.53341   0.16782   -0.038607           
         C         C         0.16163   0.46361   0.24065   -0.175034           
         C         C         0.20133   0.46388   0.25033   -0.032450           
         C         C         0.21874   0.49864   0.21804   -0.234344           
         O         O         0.09989   0.55951   0.24967   -0.383425           
         O         O         0.08658   0.43681   0.14909   -0.407585           
         N         N         0.09642   0.49868   0.19191   -0.205434           
         H         H         0.03176   0.59360   0.17358   0.139948  
         H         H         0.13509   0.56144   0.10528   0.133620  
         H         H         0.20560   0.56107   0.13686   0.110957  
         H         H         0.03523   0.40302   0.24496   0.131691  
         H         H         0.15005   0.43608   0.27128   0.134754  
         H         H         0.21935   0.43623   0.28681   0.113135  
         C         C         0.97844   0.49852   0.20863   0.018037  
         C         C         0.98244   0.42889   0.25713   -0.061068           
         C         C         0.97576   0.56812   0.16406   -0.070889           
         C         C         0.96147   0.46322   0.23915   -0.068100           
         C         C         0.92268   0.46245   0.26097   0.430102  
         C         C         0.95720   0.53396   0.18230   -0.069268           
         C         C         0.91449   0.53543   0.16544   0.420560  
         C         C         0.85694   0.49945   0.19076   0.184254  
         C         C         0.83153   0.47110   0.12445   -0.157037           
         C         C         0.79140   0.47163   0.11041   -0.055630           
         C         C         0.84103   0.52874   0.23553   -0.171872           
         C         C         0.80017   0.52990   0.21207   -0.028358           
         C         C         0.77474   0.50114   0.15203   -0.238193           
         O         O         0.91180   0.43185   0.32508   -0.408078           
         O         O         0.89377   0.56683   0.11656   -0.404567           
         N         N         0.89869   0.49920   0.20562   -0.210237           
         H         H         0.96878   0.40202   0.28054   0.135497  
         H         H         0.84259   0.44910   0.08175   0.132469  
         H         H         0.77236   0.44906   0.06241   0.115289  
         H         H         0.95841   0.59502   0.14269   0.132398  
         H         H         0.85999   0.55080   0.28727   0.129062  
         H         H         0.78863   0.55278   0.24903   0.114373  
         C         C         0.49769   0.01860   0.20583   0.021565  
         C         C         0.42478   0.02001   0.13888   -0.071283           
         C         C         0.57029   0.01684   0.26699   -0.083619           
         C         C         0.46064   0.03880   0.17419   -0.056474           
         C         C         0.45873   0.08042   0.16782   0.436509  
         C         C         0.53419   0.03717   0.23919   -0.066052           
         C         C         0.53507   0.07778   0.25099   0.423238  
         C         C         0.49549   0.13921   0.20093   0.195224  
         C         C         0.46913   0.15601   0.25424   -0.169430           
         C         C         0.46784   0.19548   0.24121   -0.036623           
         C         C         0.52084   0.16259   0.13790   -0.156429           
         C         C         0.52082   0.20149   0.13562   -0.038916           
         C         C         0.49409   0.21898   0.18512   -0.239702           
         O         O         0.42573   0.09828   0.12999   -0.405413           
         O         O         0.56801   0.09247   0.29736   -0.399481           
         N         N         0.49656   0.09833   0.20866   -0.199820           
         H         H         0.39657   0.03610   0.11551   0.131588  
         H         H         0.44924   0.13882   0.30354   0.119298  
         H         H         0.44648   0.20796   0.27927   0.099740  
         H         H         0.59795   0.03190   0.29042   0.131661  
         H         H         0.54096   0.15063   0.09297   0.114967  
         H         H         0.54162   0.21866   0.09111   0.101466  
         C         C         0.49794   0.97939   0.19904   0.016141  
         C         C         0.57120   0.97750   0.27033   -0.072123           
         C         C         0.42452   0.98178   0.12445   -0.066998           
         C         C         0.53543   0.95871   0.23794   -0.071291           
         C         C         0.53742   0.91651   0.25761   0.424552  
         C         C         0.46058   0.96170   0.15119   -0.075270           
         C         C         0.45905   0.92375   0.11012   0.430263  
         C         C         0.49848   0.86066   0.18242   0.184833  
         C         C         0.52882   0.84333   0.15286   -0.167466           
         C         C         0.53043   0.80387   0.16541   -0.030161           
         C         C         0.46886   0.83859   0.21739   -0.158047           
         C         C         0.47009   0.79949   0.22354   -0.039747           
         C         C         0.50119   0.78117   0.20095   -0.247257           
         O         O         0.57123   0.89619   0.33470   -0.404811           
         O         O         0.42570   0.91281   0.01459   -0.407899           
         N         N         0.49837   0.90094   0.18330   -0.211135           
         H         H         0.59981   0.96097   0.30025   0.131866  
         H         H         0.55121   0.86021   0.12075   0.128373  
         H         H         0.55410   0.79095   0.14115   0.113406  
         H         H         0.39615   0.96749   0.08975   0.135488  
         H         H         0.44553   0.85149   0.24287   0.131273  
         H         H         0.44709   0.78256   0.25123   0.110608  
         Ni        Ni        0.50230   0.49892   0.69590   0.466018 

