
##########################################################################
#               Crystallographic Information Format file
#               Produced by PyCifRW module
#
#  This is a CIF file.  CIF has been adopted by the International
#  Union of Crystallography as the standard for data archiving and
#  transmission.
#
#  For information on this file format, follow the CIF links at
#  http://www.iucr.org
##########################################################################

data_image0

_cell_length_a                          51.9512
_cell_length_b                          51.7752
_cell_length_c                          7.98519
_cell_angle_alpha                       108.053
_cell_angle_beta                        58.171
_cell_angle_gamma                       120.248
_symmetry_space_group_name_H-M          'P 1'
_space_group_name_Hall                  'P 1'
loop_
  _atom_site_type_symbol
  _atom_site_label
  _atom_site_fract_x
  _atom_site_fract_y
  _atom_site_fract_z
  _atom_site_charge
         C         C         0.69706   0.33553   0.24359   0.030331  
         C         C         0.69662   0.36310   0.24698   0.030490  
         C         C         0.72353   0.39075   0.25282   -0.229529           
         C         C         0.72481   0.33595   0.24089   -0.222024           
         C         C         0.74973   0.39014   0.25201   0.170293  
         C         C         0.75043   0.36312   0.24498   0.176843  
         C         C         0.66846   0.36279   0.24624   0.029324  
         C         C         0.64080   0.33499   0.24874   0.029466  
         C         C         0.61277   0.33476   0.25619   -0.223615           
         C         C         0.66848   0.39000   0.24162   -0.226291           
         C         C         0.61358   0.36157   0.25446   0.181654  
         C         C         0.64132   0.38873   0.24297   0.169903  
         C         C         0.64129   0.30691   0.24475   0.030417  
         C         C         0.66914   0.30710   0.24163   0.027929  
         C         C         0.66924   0.27955   0.23898   -0.231075           
         C         C         0.61409   0.27927   0.24254   -0.232989           
         C         C         0.64227   0.25336   0.23899   0.173466  
         C         C         0.61517   0.25325   0.24029   0.172978  
         C         C         0.30652   0.66597   0.25544   0.032108  
         C         C         0.30702   0.63834   0.24945   0.027768  
         C         C         0.28015   0.61074   0.24167   -0.224684           
         C         C         0.27919   0.66574   0.25430   -0.226867           
         C         C         0.25420   0.61152   0.24038   0.169638  
         C         C         0.25376   0.63864   0.24696   0.182558  
         C         C         0.33504   0.63859   0.25172   0.030605  
         C         C         0.36165   0.66643   0.26426   0.029612  
         C         C         0.38869   0.66647   0.26833   -0.222247           
         C         C         0.33591   0.61119   0.24230   -0.228501           
         C         C         0.38848   0.63947   0.26001   0.179720  
         C         C         0.36242   0.61225   0.24766   0.172230  
         C         C         0.36119   0.69463   0.26900   0.029338  
         C         C         0.33395   0.69435   0.26401   0.027583  
         C         C         0.33380   0.72180   0.26531   -0.231461           
         C         C         0.38794   0.72246   0.27600   -0.235146           
         C         C         0.36007   0.74812   0.27271   0.175225  
         C         C         0.38677   0.74846   0.27747   0.175405  
         O         O         0.77958   0.36910   0.24485   -0.341609           
         O         O         0.63606   0.41184   0.23397   -0.344223           
         O         O         0.59171   0.22406   0.23964   -0.336916           
         O         O         0.22484   0.63294   0.24581   -0.338810           
         O         O         0.36812   0.58873   0.24486   -0.341984           
         O         O         0.40983   0.77783   0.28084   -0.339775           
         O         O         0.36561   0.77720   0.27162   -0.338779           
         O         O         0.41155   0.63375   0.26353   -0.341831           
         O         O         0.22558   0.58796   0.23348   -0.341990           
         O         O         0.63645   0.22415   0.23948   -0.338241           
         O         O         0.58974   0.36694   0.25846   -0.339743           
         O         O         0.77827   0.41388   0.25862   -0.341353           
         B         B         0.79656   0.40051   0.25270   0.582476  
         B         B         0.60404   0.39801   0.24393   0.579247  
         B         B         0.60514   0.20632   0.23959   0.587411  
         B         B         0.20757   0.60157   0.23827   0.580489  
         B         B         0.39853   0.60233   0.25496   0.581124  
         B         B         0.39653   0.79536   0.27589   0.591107  
         H         H         0.72374   0.41208   0.25939   0.136810  
         H         H         0.59110   0.31419   0.26119   0.137056  
         H         H         0.68965   0.27873   0.23955   0.134015  
         H         H         0.59283   0.27811   0.24065   0.135894  
         H         H         0.68931   0.41149   0.23502   0.135952  
         H         H         0.72617   0.31559   0.23763   0.137578  
         H         H         0.27956   0.58933   0.23743   0.136270  
         H         H         0.40904   0.68711   0.28049   0.136957  
         H         H         0.31404   0.72246   0.25617   0.134966  
         H         H         0.40900   0.72366   0.28070   0.135486  
         H         H         0.31640   0.58964   0.23109   0.136673  
         H         H         0.27794   0.68615   0.25731   0.137827  
         C         C         0.02762   0.52751   0.25698   -0.067440           
         C         C         0.47278   0.49770   0.24971   -0.054756           
         C         C         0.50068   0.97472   0.25564   -0.054826           
         C         C         0.97624   0.47462   0.23807   -0.065211           
         C         C         0.52571   0.49838   0.25001   -0.050888           
         C         C         0.50075   0.02707   0.24715   -0.054250           
         C         C         0.52730   0.02712   0.25132   -0.058666           
         C         C         0.49862   0.47130   0.25019   -0.062812           
         C         C         0.97566   0.50196   0.25297   -0.051405           
         C         C         0.47415   0.97463   0.25077   -0.058003           
         C         C         0.50023   0.52467   0.24521   -0.062016           
         C         C         0.02827   0.50019   0.24174   -0.050228           
         C         C         0.05820   0.55221   0.26885   0.426076  
         C         C         0.44822   0.50443   0.24862   0.426160  
         C         C         0.49312   0.94346   0.26730   0.431050  
         C         C         0.94572   0.44999   0.22495   0.422400  
         C         C         0.54980   0.49193   0.25809   0.427001  
         C         C         0.50817   0.05843   0.23849   0.430301  
         C         C         0.55198   0.05858   0.25395   0.430432  
         C         C         0.50490   0.44638   0.25243   0.425844  
         C         C         0.94451   0.49587   0.25297   0.428692  
         C         C         0.44945   0.94312   0.24900   0.430242  
         C         C         0.49487   0.54952   0.23358   0.424483  
         C         C         0.05964   0.50637   0.23970   0.424059  
         C         C         0.10919   0.55404   0.25403   0.204353  
         C         C         0.44703   0.55248   0.23984   0.199213  
         C         C         0.44565   0.89287   0.26419   0.208404  
         C         C         0.89479   0.44831   0.23957   0.200136  
         C         C         0.55326   0.44431   0.24705   0.199208  
         C         C         0.55554   0.10894   0.24410   0.212576  
         C         C         0.12739   0.58501   0.22737   -0.176518           
         C         C         0.41793   0.53736   0.21376   -0.199337           
         C         C         0.46234   0.87700   0.24833   -0.186546           
         C         C         0.87716   0.41714   0.25796   -0.176695           
         C         C         0.58770   0.45921   0.19243   -0.184310           
         C         C         0.53985   0.12495   0.24874   -0.186000           
         C         C         0.58735   0.12468   0.23803   -0.184847           
         C         C         0.53548   0.41428   0.29675   -0.178037           
         C         C         0.88045   0.46398   0.22537   -0.200467           
         C         C         0.41288   0.87700   0.28439   -0.180278           
         C         C         0.46028   0.58385   0.27171   -0.180495           
         C         C         0.12290   0.53863   0.27694   -0.196686           
         C         C         0.15875   0.59993   0.22244   -0.040047           
         C         C         0.40247   0.55355   0.22201   -0.024831           
         C         C         0.44624   0.84597   0.25511   -0.032463           
         C         C         0.84584   0.40225   0.26252   -0.036586           
         C         C         0.60376   0.44434   0.19183   -0.031128           
         C         C         0.55600   0.15602   0.24598   -0.032083           
         C         C         0.60286   0.15576   0.23727   -0.031483           
         C         C         0.55229   0.39965   0.29054   -0.034599           
         C         C         0.84890   0.44861   0.23237   -0.027857           
         C         C         0.39753   0.84591   0.28714   -0.031673           
         C         C         0.44450   0.59953   0.27816   -0.039258           
         C         C         0.15451   0.55398   0.26893   -0.027340           
         H         H         0.11705   0.59711   0.21014   0.134838  
         H         H         0.40731   0.51323   0.18930   0.134549  
         H         H         0.48748   0.88893   0.23344   0.135691  
         H         H         0.88790   0.40484   0.26911   0.134464  
         H         H         0.60154   0.48225   0.15251   0.132322  
         H         H         0.51546   0.11315   0.25257   0.131002  
         H         H         0.59960   0.11268   0.23572   0.132983  
         H         H         0.50899   0.40259   0.33866   0.134269  
         H         H         0.89370   0.48795   0.21126   0.134321  
         H         H         0.39980   0.88885   0.29505   0.132649  
         H         H         0.48252   0.59570   0.29301   0.137117  
         H         H         0.10909   0.51487   0.29893   0.131917  
         H         H         0.17247   0.62387   0.20140   0.112992  
         H         H         0.38016   0.54155   0.19986   0.112223  
         H         H         0.45945   0.83421   0.24554   0.109252  
         H         H         0.83259   0.37813   0.27651   0.112421  
         H         H         0.63033   0.45627   0.15109   0.110862  
         H         H         0.54362   0.16798   0.24761   0.109033  
         H         H         0.62730   0.16756   0.23465   0.108114  
         H         H         0.53838   0.37637   0.32838   0.114138  
         H         H         0.83821   0.46105   0.22075   0.110370  
         H         H         0.37235   0.83402   0.30029   0.108763  
         H         H         0.45511   0.62377   0.30374   0.113662  
         H         H         0.16469   0.54175   0.28785   0.108790  
         C         C         0.83086   0.41750   0.25119   -0.236502           
         C         C         0.58653   0.41432   0.24088   -0.234190           
         C         C         0.58773   0.17214   0.24072   -0.247856           
         C         C         0.17319   0.58484   0.24109   -0.236671           
         C         C         0.41528   0.58490   0.25433   -0.234602           
         C         C         0.41364   0.82963   0.27335   -0.246480           
         C         C         0.52767   0.52609   0.24625   -0.071912           
         H         H         0.54895   0.54709   0.24408   0.153185  
         C         C         0.47313   0.00081   0.24646   -0.073851           
         H         H         0.45249   0.00077   0.24242   0.143467  
         C         C         0.00257   0.47265   0.23138   -0.072250           
         H         H         0.00304   0.45133   0.21865   0.151101  
         C         C         0.47096   0.46996   0.25198   -0.075681           
         H         H         0.44974   0.44895   0.25339   0.155002  
         C         C         0.52834   0.00097   0.25580   -0.073811           
         H         H         0.54897   0.00104   0.26005   0.144320  
         C         C         0.00131   0.52948   0.26353   -0.074390           
         H         H         0.00090   0.55079   0.27515   0.155192  
         O         O         0.06516   0.57890   0.28933   -0.370217           
         O         O         0.06843   0.48781   0.22872   -0.377230           
         O         O         0.42114   0.48630   0.25463   -0.377336           
         O         O         0.51455   0.57586   0.21784   -0.367205           
         O         O         0.50997   0.93566   0.28691   -0.390346           
         O         O         0.42384   0.93479   0.23741   -0.383006           
         O         O         0.93885   0.42329   0.20250   -0.370061           
         O         O         0.93614   0.51455   0.26044   -0.377123           
         O         O         0.57504   0.51030   0.27470   -0.379413           
         O         O         0.48638   0.41973   0.25609   -0.373737           
         O         O         0.49117   0.06638   0.22172   -0.385901           
         O         O         0.57763   0.06665   0.26443   -0.383214           
         N         N         0.07718   0.53835   0.25592   -0.215068           
         N         N         0.46272   0.53625   0.23820   -0.216191           
         N         N         0.46198   0.92480   0.25907   -0.200909           
         N         N         0.92675   0.46391   0.23838   -0.213727           
         N         N         0.53675   0.45998   0.25172   -0.214848           
         N         N         0.53934   0.07700   0.24638   -0.199169           
         C         C         0.69368   0.33396   0.74226   0.031687  
         C         C         0.69379   0.36182   0.74677   0.030246  
         C         C         0.72106   0.38912   0.75259   -0.230265           
         C         C         0.72109   0.33364   0.73914   -0.225371           
         C         C         0.74692   0.38781   0.75126   0.173309  
         C         C         0.74705   0.36047   0.74328   0.180498  
         C         C         0.66584   0.36214   0.74736   0.030238  
         C         C         0.63774   0.33464   0.75082   0.027846  
         C         C         0.61015   0.33522   0.75778   -0.221721           
         C         C         0.66659   0.38972   0.74276   -0.226594           
         C         C         0.61166   0.36238   0.75601   0.179744  
         C         C         0.63973   0.38919   0.74491   0.170655  
         C         C         0.63752   0.30618   0.74743   0.031543  
         C         C         0.66541   0.30588   0.74082   0.028887  
         C         C         0.66530   0.27815   0.73575   -0.232266           
         C         C         0.60978   0.27869   0.74935   -0.231794           
         C         C         0.63805   0.25221   0.73771   0.176752  
         C         C         0.61062   0.25240   0.74529   0.171771  
         C         C         0.30320   0.66521   0.75782   0.028833  
         C         C         0.30378   0.63744   0.74840   0.032286  
         C         C         0.27715   0.60997   0.73661   -0.230484           
         C         C         0.27574   0.66516   0.75927   -0.221759           
         C         C         0.25118   0.61095   0.73692   0.174930  
         C         C         0.25035   0.63814   0.74997   0.176499  
         C         C         0.33158   0.63741   0.75180   0.029032  
         C         C         0.35822   0.66518   0.76428   0.030525  
         C         C         0.38509   0.66520   0.76981   -0.224580           
         C         C         0.33220   0.60995   0.74449   -0.225720           
         C         C         0.38466   0.63821   0.76316   0.182539  
         C         C         0.35858   0.61096   0.75144   0.170358  
         C         C         0.35804   0.69344   0.76864   0.030091  
         C         C         0.33070   0.69351   0.76718   0.028091  
         C         C         0.33071   0.72123   0.77230   -0.232287           
         C         C         0.38518   0.72098   0.77378   -0.233527           
         C         C         0.35738   0.74730   0.77791   0.174681  
         C         C         0.38424   0.74720   0.77805   0.175487  
         O         O         0.77595   0.36580   0.74335   -0.340527           
         O         O         0.63526   0.41279   0.73517   -0.344514           
         O         O         0.58679   0.22319   0.74839   -0.339206           
         O         O         0.22129   0.63249   0.75007   -0.340405           
         O         O         0.36436   0.58753   0.75008   -0.342408           
         O         O         0.40766   0.77636   0.78095   -0.338398           
         O         O         0.36325   0.77657   0.77908   -0.340226           
         O         O         0.40778   0.63272   0.76691   -0.341980           
         O         O         0.22296   0.58745   0.72526   -0.341492           
         O         O         0.63232   0.22301   0.73628   -0.339757           
         O         O         0.58840   0.36850   0.75860   -0.340478           
         O         O         0.77558   0.41111   0.75899   -0.341866           
         B         B         0.79328   0.39715   0.75380   0.579937  
         B         B         0.60336   0.39966   0.74454   0.582800  
         B         B         0.60055   0.20530   0.74337   0.589156  
         B         B         0.20462   0.60110   0.73503   0.580977  
         B         B         0.39491   0.60133   0.75928   0.580069  
         B         B         0.39452   0.79430   0.77967   0.591049  
         H         H         0.72177   0.41072   0.76021   0.136677  
         H         H         0.58828   0.31493   0.76200   0.136818  
         H         H         0.68572   0.27692   0.73341   0.135758  
         H         H         0.58832   0.27798   0.75235   0.135328  
         H         H         0.68789   0.41088   0.73420   0.136258  
         H         H         0.72187   0.31299   0.73655   0.137309  
         H         H         0.27679   0.58847   0.72740   0.136850  
         H         H         0.40556   0.68573   0.78158   0.137124  
         H         H         0.31078   0.72228   0.76760   0.135347  
         H         H         0.40634   0.72182   0.77517   0.135136  
         H         H         0.31257   0.58843   0.73423   0.137059  
         H         H         0.27447   0.68572   0.76559   0.137933  
         C         C         0.02486   0.52419   0.74829   -0.064216           
         C         C         0.47370   0.50071   0.74876   -0.053317           
         C         C         0.49981   0.97370   0.75351   -0.055456           
         C         C         0.97289   0.47092   0.74170   -0.062679           
         C         C         0.52709   0.50210   0.74743   -0.050033           
         C         C         0.49912   0.02579   0.74756   -0.055939           
         C         C         0.52590   0.02620   0.75130   -0.057356           
         C         C         0.50013   0.47490   0.74764   -0.066331           
         C         C         0.97308   0.49805   0.74267   -0.053137           
         C         C         0.47297   0.97339   0.75128   -0.056682           
         C         C         0.50093   0.52786   0.74405   -0.064083           
         C         C         0.02473   0.49713   0.74797   -0.055179           
         C         C         0.05562   0.54919   0.75527   0.425425  
         C         C         0.44885   0.50683   0.74700   0.425937  
         C         C         0.49267   0.94241   0.76200   0.432975  
         C         C         0.94191   0.44611   0.73511   0.428190  
         C         C         0.55139   0.49568   0.75421   0.428745  
         C         C         0.50627   0.05693   0.73611   0.429697  
         C         C         0.55014   0.05787   0.75573   0.428186  
         C         C         0.50669   0.45008   0.74727   0.425119  
         C         C         0.94257   0.49171   0.73470   0.422657  
         C         C         0.44844   0.94186   0.74896   0.431487  
         C         C         0.49489   0.55236   0.73359   0.429029  
         C         C         0.05532   0.50390   0.75778   0.427668  
         C         C         0.10566   0.55202   0.75855   0.201486  
         C         C         0.44632   0.55403   0.73861   0.203559  
         C         C         0.44481   0.89172   0.76322   0.212407  
         C         C         0.89191   0.44427   0.73490   0.205484  
         C         C         0.55469   0.44788   0.74363   0.194429  
         C         C         0.55291   0.10783   0.74464   0.208817  
         C         C         0.12129   0.58353   0.76027   -0.182610           
         C         C         0.41703   0.53805   0.71436   -0.199753           
         C         C         0.46078   0.87575   0.75551   -0.185737           
         C         C         0.87516   0.41285   0.73969   -0.184269           
         C         C         0.58926   0.46205   0.68540   -0.180842           
         C         C         0.53538   0.12339   0.76787   -0.182368           
         C         C         0.58582   0.12399   0.72176   -0.178845           
         C         C         0.53614   0.41814   0.79953   -0.185171           
         C         C         0.87642   0.46029   0.73728   -0.200698           
         C         C         0.41247   0.87595   0.77672   -0.182815           
         C         C         0.45892   0.58542   0.76898   -0.179743           
         C         C         0.12229   0.53656   0.74905   -0.196381           
         C         C         0.15316   0.59893   0.74809   -0.034474           
         C         C         0.40056   0.55335   0.72427   -0.025727           
         C         C         0.44436   0.84472   0.76335   -0.029259           
         C         C         0.84350   0.39812   0.74881   -0.035468           
         C         C         0.60467   0.44657   0.68605   -0.034377           
         C         C         0.55084   0.15448   0.76564   -0.032835           
         C         C         0.60052   0.15510   0.72375   -0.034268           
         C         C         0.55221   0.40292   0.79522   -0.031971           
         C         C         0.84479   0.44502   0.74587   -0.027317           
         C         C         0.39675   0.84490   0.78202   -0.031195           
         C         C         0.44218   0.60023   0.77671   -0.042379           
         C         C         0.15408   0.55252   0.73832   -0.028852           
         H         H         0.10866   0.59568   0.76906   0.138958  
         H         H         0.40707   0.51392   0.68989   0.134155  
         H         H         0.48561   0.88758   0.74544   0.132966  
         H         H         0.88678   0.40030   0.73838   0.137919  
         H         H         0.60373   0.48490   0.64109   0.133387  
         H         H         0.51013   0.11119   0.78459   0.131949  
         H         H         0.59951   0.11236   0.70551   0.133421  
         H         H         0.50954   0.40711   0.84515   0.137856  
         H         H         0.88900   0.48442   0.73297   0.135572  
         H         H         0.40000   0.88786   0.78064   0.132310  
         H         H         0.48139   0.59788   0.78816   0.137413  
         H         H         0.11047   0.51237   0.74942   0.133003  
         H         H         0.16488   0.62327   0.74861   0.113230  
         H         H         0.37809   0.54066   0.70367   0.112673  
         H         H         0.45704   0.83286   0.75919   0.107254  
         H         H         0.83093   0.37383   0.75293   0.112412  
         H         H         0.63137   0.45782   0.64184   0.112291  
         H         H         0.53707   0.16610   0.78082   0.109858  
         H         H         0.62582   0.16729   0.70881   0.110789  
         H         H         0.53754   0.37990   0.83904   0.114771  
         H         H         0.83340   0.45780   0.74568   0.113341  
         H         H         0.37191   0.83313   0.79018   0.108168  
         H         H         0.45230   0.62451   0.80067   0.113331  
         H         H         0.16649   0.54024   0.73242   0.114087  
         C         C         0.82753   0.41371   0.75251   -0.237720           
         C         C         0.58662   0.41675   0.74048   -0.233093           
         C         C         0.58359   0.17106   0.74460   -0.244907           
         C         C         0.17033   0.58393   0.73643   -0.236693           
         C         C         0.41260   0.58466   0.75604   -0.233043           
         C         C         0.41211   0.82853   0.77603   -0.250096           
         C         C         0.52858   0.52965   0.74481   -0.071165           
         H         H         0.54959   0.55083   0.74392   0.156209  
         C         C         0.47156   -0.00060  0.74796   -0.074198           
         H         H         0.45071   0.99917   0.74540   0.143768  
         C         C         0.99876   0.46940   0.74404   -0.068783           
         H         H         0.99854   0.44831   0.74498   0.150700  
         C         C         0.47220   0.47317   0.75117   -0.075911           
         H         H         0.45102   0.45202   0.75456   0.151526  
         C         C         0.52736   0.00013   0.75360   -0.073122           
         H         H         0.54827   0.00038   0.75566   0.144830  
         C         C         0.99899   0.52574   0.74668   -0.070826           
         H         H         0.99909   0.54686   0.74781   0.151332  
         O         O         0.06350   0.57576   0.75751   -0.366023           
         O         O         0.06283   0.48563   0.76604   -0.376956           
         O         O         0.42197   0.48822   0.75206   -0.378548           
         O         O         0.51398   0.57885   0.72029   -0.366746           
         O         O         0.51007   0.93465   0.77626   -0.387176           
         O         O         0.42281   0.93355   0.73761   -0.383125           
         O         O         0.93374   0.41944   0.73127   -0.364103           
         O         O         0.93542   0.51038   0.72778   -0.378670           
         O         O         0.57661   0.51390   0.77118   -0.378372           
         O         O         0.48832   0.42340   0.74879   -0.376171           
         O         O         0.48931   0.06446   0.71548   -0.387975           
         O         O         0.57556   0.06656   0.77042   -0.382342           
         N         N         0.07360   0.53589   0.76078   -0.213031           
         N         N         0.46276   0.53852   0.73646   -0.218572           
         N         N         0.46124   0.92364   0.75715   -0.204319           
         N         N         0.92401   0.45983   0.73184   -0.212914           
         N         N         0.53849   0.46370   0.74622   -0.212604           
         N         N         0.53726   0.07587   0.74549   -0.201506 

