
##########################################################################
#               Crystallographic Information Format file
#               Produced by PyCifRW module
#
#  This is a CIF file.  CIF has been adopted by the International
#  Union of Crystallography as the standard for data archiving and
#  transmission.
#
#  For information on this file format, follow the CIF links at
#  http://www.iucr.org
##########################################################################

data_image0

_cell_length_a                          14.6984
_cell_length_b                          14.8368
_cell_length_c                          7.8187
_cell_angle_alpha                       95.7357
_cell_angle_beta                        115.418
_cell_angle_gamma                       120.351
_symmetry_space_group_name_H-M          'P 1'
_space_group_name_Hall                  'P 1'
loop_
  _atom_site_type_symbol
  _atom_site_label
  _atom_site_fract_x
  _atom_site_fract_y
  _atom_site_fract_z
  _atom_site_charge
         N         N         0.55958   0.53907   0.72354   0.035143  
         N         N         0.44361   0.47192   0.65754   0.032397  
         C         C         0.62549   0.50968   0.69155   0.045337  
         C         C         0.37809   0.50205   0.68882   0.051227  
         H         H         0.60697   0.42915   0.69747   0.152247  
         H         H         0.39653   0.58225   0.68051   0.151668  
         N         N         0.96849   0.52414   0.65955   0.063893  
         N         N         0.04081   0.49696   0.72715   0.061820  
         C         C         -0.00088  0.62809   0.68252   0.047454  
         C         C         0.00837   0.39224   0.70268   0.052528  
         H         H         0.07877   0.68830   0.67392   0.145830  
         H         H         0.92900   0.33336   0.71299   0.143548  
         N         N         0.99329   0.97000   0.72673   0.003927  
         N         N         0.00301   0.04247   0.64778   0.000726  
         C         C         0.88052   0.88249   0.68736   0.060855  
         C         C         0.11672   0.13012   0.68981   0.064814  
         H         H         0.81504   0.89958   0.67945   0.144319  
         H         H         0.18214   0.11265   0.69885   0.141493  
         C         C         0.81585   0.56663   0.69427   0.330057  
         C         C         0.72567   0.58643   0.67994   -0.194068           
         O         O         0.80323   0.47747   0.70659   -0.378838           
         C         C         0.74147   0.69052   0.66846   0.338648  
         C         C         0.85494   0.77863   0.68018   -0.164059           
         O         O         0.66024   0.70287   0.65322   -0.374298           
         C         C         0.94262   0.75903   0.67845   0.344994  
         C         C         0.92164   0.65321   0.68960   -0.183322           
         O         O         0.03176   0.83137   0.66720   -0.381325           
         C         C         0.18947   0.44926   0.68713   0.329434  
         C         C         0.27769   0.42663   0.70105   -0.195394           
         O         O         0.20468   0.53936   0.67568   -0.379045           
         C         C         0.25851   0.32108   0.71030   0.336826  
         C         C         0.14429   0.23470   0.69903   -0.166770           
         O         O         0.33709   0.30560   0.72242   -0.379609           
         C         C         0.05912   0.25735   0.70337   0.345495  
         C         C         0.08309   0.36432   0.69261   -0.187597           
         O         O         0.96996   0.18714   0.71657   -0.386618           
         N         N         0.53652   0.51347   0.15640   0.043282  
         N         N         0.46629   0.47621   0.22318   0.040421  
         C         C         0.62225   0.49671   0.18393   0.047726  
         C         C         0.37921   0.49168   0.19281   0.042495  
         H         H         0.60063   0.41440   0.18347   0.152710  
         H         H         0.39949   0.57338   0.19182   0.151808  
         N         N         0.99014   0.52270   0.22854   0.030211  
         N         N         0.00935   0.46295   0.14502   0.025161  
         C         C         0.00011   0.61323   0.19222   0.060458  
         C         C         0.00067   0.37310   0.18374   0.057109  
         H         H         0.08144   0.67366   0.18746   0.143527  
         H         H         0.91952   0.31237   0.18858   0.143595  
         N         N         0.99743   0.95670   0.22770   -0.002206           
         N         N         0.00867   0.03271   0.15735   0.002438  
         C         C         0.88507   0.87049   0.19021   0.060995  
         C         C         0.12026   0.11892   0.19302   0.060847  
         H         H         0.82233   0.88944   0.19101   0.139260  
         H         H         0.18390   0.10101   0.19319   0.141050  
         C         C         0.80980   0.54975   0.18319   0.331425  
         C         C         0.72878   0.57711   0.18998   -0.199650           
         O         O         0.78799   0.45560   0.17678   -0.383411           
         C         C         0.74960   0.68382   0.18778   0.329605  
         C         C         0.85642   0.76502   0.17779   -0.171971           
         O         O         0.67605   0.70272   0.19179   -0.381571           
         C         C         0.94052   0.74214   0.16967   0.340221  
         C         C         0.91905   0.63639   0.18493   -0.185780           
         O         O         0.02726   0.81072   0.15021   -0.385443           
         C         C         0.19140   0.43763   0.19304   0.329588  
         C         C         0.27311   0.41097   0.18730   -0.197359           
         O         O         0.21220   0.53122   0.19717   -0.382517           
         C         C         0.25373   0.30499   0.19201   0.333019  
         C         C         0.14735   0.22374   0.20261   -0.172452           
         O         O         0.32789   0.28671   0.18932   -0.378890           
         C         C         0.06235   0.24563   0.20910   0.345920  
         C         C         0.08270   0.35100   0.19274   -0.180781           
         O         O         0.97573   0.17635   0.22794   -0.384576 

