
##########################################################################
#               Crystallographic Information Format file
#               Produced by PyCifRW module
#
#  This is a CIF file.  CIF has been adopted by the International
#  Union of Crystallography as the standard for data archiving and
#  transmission.
#
#  For information on this file format, follow the CIF links at
#  http://www.iucr.org
##########################################################################

data_image0

_cell_length_a                          15.4935
_cell_length_b                          15.2624
_cell_length_c                          13.7384
_cell_angle_alpha                       89.7824
_cell_angle_beta                        90.7656
_cell_angle_gamma                       89.5311
_symmetry_space_group_name_H-M          'P 1'
_space_group_name_Hall                  'P 1'
loop_
  _atom_site_type_symbol
  _atom_site_label
  _atom_site_fract_x
  _atom_site_fract_y
  _atom_site_fract_z
  _atom_site_charge
         C         C         0.94348   0.05972   0.56219   0.301490  
         C         C         0.88235   0.11701   0.72818   0.426545  
         C         C         0.81649   0.18534   0.75204   -0.055774           
         C         C         0.82856   0.17738   0.58264   0.430935  
         C         C         0.78348   0.22054   0.66491   -0.055220           
         C         C         0.78875   0.21267   0.84344   -0.070727           
         O         O         0.92223   0.07117   0.78623   -0.373079           
         O         O         0.81755   0.19151   0.49556   -0.403761           
         N         N         0.88760   0.11607   0.62448   -0.222776           
         H         H         0.95834   0.16238   0.45341   0.129043  
         H         H         0.81551   0.18528   0.91074   0.147115  
         C         C         0.06014   0.94310   0.55936   0.300604  
         C         C         0.00157   0.88535   0.49506   -0.346576           
         C         C         0.12742   0.88295   0.72288   0.427594  
         C         C         0.19193   0.81292   0.74610   -0.054365           
         C         C         0.17513   0.82248   0.57697   0.430530  
         C         C         0.22052   0.77642   0.65902   -0.055015           
         C         C         0.22160   0.78483   0.83732   -0.071442           
         O         O         0.09082   0.92906   0.78184   -0.374949           
         O         O         0.18521   0.80953   0.48999   -0.402632           
         N         N         0.11825   0.88476   0.61931   -0.225908           
         H         H         0.04100   0.84446   0.44734   0.128256  
         H         H         0.19905   0.81364   0.90479   0.147163  
         C         C         0.44605   0.43723   0.06690   0.300249  
         C         C         0.55899   0.55536   0.06668   0.300976  
         C         C         0.38681   0.49463   0.00176   -0.348568           
         C         C         0.61794   0.49729   0.00414   -0.352491           
         C         C         0.37455   0.38534   0.22936   0.429928  
         C         C         0.61837   0.62276   0.23027   0.425910  
         C         C         0.30839   0.31771   0.25074   -0.056078           
         C         C         0.68368   0.69167   0.25117   -0.053003           
         C         C         0.33323   0.31868   0.08320   0.429914  
         C         C         0.67200   0.67442   0.08260   0.431235  
         C         C         0.28209   0.27923   0.16305   -0.054598           
         C         C         0.71632   0.72198   0.16296   -0.057575           
         C         C         0.27510   0.29336   0.34061   -0.068736           
         C         C         0.71215   0.72292   0.34117   -0.069641           
         O         O         0.40719   0.43529   0.28797   -0.375034           
         O         O         0.57774   0.58185   0.29041   -0.374141           
         O         O         0.32810   0.30212   0.99620   -0.402006           
         O         O         0.68332   0.68440   0.99523   -0.403385           
         N         N         0.38961   0.38028   0.12724   -0.225673           
         N         N         0.61432   0.61481   0.12669   -0.223489           
         H         H         0.34552   0.53531   0.04776   0.128247  
         H         H         0.65990   0.45733   0.05170   0.128304  
         H         H         0.29671   0.32294   0.40860   0.146933  
         H         H         0.68632   0.69956   0.40972   0.146674  
         H         H         0.04286   0.04054   0.67326   0.132800  
         H         H         0.96405   0.95857   0.67211   0.134674  
         C         C         0.50294   0.49655   0.13166   -0.328102           
         C         C         0.56109   0.43783   0.94021   0.302997  
         C         C         0.44291   0.55301   0.93739   0.302769  
         C         C         0.62280   0.37729   0.77648   0.428651  
         C         C         0.37592   0.61049   0.77203   0.428656  
         C         C         0.69081   0.31139   0.75392   -0.056574           
         C         C         0.31139   0.68059   0.74803   -0.054149           
         C         C         0.67953   0.32201   0.92305   0.431319  
         C         C         0.32731   0.67152   0.91739   0.429830  
         C         C         0.72449   0.27740   0.84124   -0.054278           
         C         C         0.28252   0.71721   0.83499   -0.054691           
         C         C         0.71904   0.28482   0.66265   -0.069280           
         C         C         0.28146   0.70861   0.65674   -0.071233           
         O         O         0.57974   0.41840   0.71684   -0.375867           
         O         O         0.41252   0.56366   0.71377   -0.374466           
         O         O         0.69226   0.31068   0.01030   -0.403156           
         O         O         0.31631   0.68428   0.00431   -0.402811           
         N         N         0.61876   0.38129   0.88008   -0.225029           
         N         N         0.38480   0.60959   0.87567   -0.226187           
         H         H         0.46593   0.33614   0.95757   0.129214  
         H         H         0.53876   0.65439   0.95435   0.127551  
         H         H         0.69250   0.31235   0.59541   0.146298  
         H         H         0.30382   0.67968   0.58921   0.147520  
         H         H         0.95646   0.04547   0.32113   0.132332  
         H         H         0.03716   0.96418   0.31985   0.132850  
         C         C         0.50154   0.49486   0.87430   -0.328688           
         C         C         0.05605   0.06206   0.43294   0.300442  
         C         C         0.11596   0.00273   0.49549   -0.348628           
         C         C         0.11821   0.12367   0.26946   0.425350  
         C         C         0.18483   0.19103   0.24827   -0.052687           
         C         C         0.16742   0.18283   0.41689   0.432034  
         C         C         0.21294   0.22775   0.33622   -0.056327           
         C         C         0.21838   0.21524   0.15851   -0.071652           
         O         O         0.07865   0.08014   0.20980   -0.373070           
         O         O         0.17752   0.19539   0.50425   -0.401900           
         N         N         0.11090   0.12114   0.37295   -0.225324           
         H         H         0.15731   0.04305   0.54229   0.128761  
         H         H         0.19679   0.18565   0.09057   0.146977  
         C         C         0.99767   0.00426   0.36793   -0.328250           
         C         C         0.94179   0.94492   0.43269   0.302862  
         C         C         0.87856   0.88127   0.26932   0.425600  
         C         C         0.80965   0.81600   0.24792   -0.053262           
         C         C         0.82254   0.83172   0.41679   0.432064  
         C         C         0.77654   0.78608   0.33611   -0.057840           
         C         C         0.78047   0.78540   0.15784   -0.068830           
         O         O         0.92180   0.91991   0.20965   -0.373388           
         O         O         0.81046   0.82218   0.50409   -0.403209           
         N         N         0.88333   0.88831   0.37288   -0.225053           
         H         H         0.84510   0.96140   0.54447   0.128735  
         H         H         0.80609   0.80868   0.08914   0.146570  
         C         C         -0.00065  0.11952   0.49878   -0.350570           
         H         H         0.04000   0.16001   0.54603   0.127164  
         C         C         0.00287   0.00032   0.62529   -0.329349           
         C         C         0.50494   0.37864   0.00435   -0.348845           
         C         C         0.49971   0.61267   0.00121   -0.348295           
         H         H         0.54585   0.33772   0.05210   0.128320  
         H         H         0.45927   0.65427   0.04704   0.128448  
         C         C         0.88494   0.00257   0.49798   -0.350828           
         H         H         0.84274   0.04382   0.45211   0.127038  
         H         H         0.34604   0.45319   0.95559   0.127310  
         H         H         0.65817   0.53800   0.95750   0.128847  
         H         H         0.96310   0.84279   0.54169   0.126707  
         H         H         0.15681   0.96295   0.44806   0.128492  
         H         H         0.54395   0.45615   0.17973   0.131730  
         H         H         0.46255   0.53701   0.17833   0.133410  
         H         H         0.46232   0.45298   0.82737   0.133294  
         H         H         0.54011   0.53580   0.82638   0.133199 

