
##########################################################################
#               Crystallographic Information Format file
#               Produced by PyCifRW module
#
#  This is a CIF file.  CIF has been adopted by the International
#  Union of Crystallography as the standard for data archiving and
#  transmission.
#
#  For information on this file format, follow the CIF links at
#  http://www.iucr.org
##########################################################################

data_image0

_cell_length_a                          29.99
_cell_length_b                          30.0844
_cell_length_c                          8.0228
_cell_angle_alpha                       75.1159
_cell_angle_beta                        122.471
_cell_angle_gamma                       119.979
_symmetry_space_group_name_H-M          'P 1'
_space_group_name_Hall                  'P 1'
loop_
  _atom_site_type_symbol
  _atom_site_label
  _atom_site_fract_x
  _atom_site_fract_y
  _atom_site_fract_z
  _atom_site_charge
         C         C         0.40110   0.40448   0.72710   -0.243116           
         C         C         0.44954   0.45226   0.73296   0.075940  
         C         C         0.59338   0.49983   0.74384   -0.237130           
         C         C         0.54538   0.49983   0.74202   0.082006  
         H         H         0.40030   0.36823   0.72315   0.141437  
         H         H         0.59300   0.46396   0.73795   0.142325  
         O         O         0.68891   0.55660   0.74940   -0.342163           
         C         C         0.35667   0.40658   0.72733   0.171403  
         O         O         0.30617   0.36641   0.72687   -0.345374           
         C         C         0.63832   0.54629   0.74874   0.183032  
         C         C         0.49726   0.45369   0.73487   -0.198467           
         H         H         0.49677   0.41773   0.72845   0.112352  
         O         O         0.30573   0.44342   0.72547   -0.342697           
         C         C         0.63855   0.59351   0.75085   0.174165  
         O         O         0.68877   0.63362   0.74937   -0.347661           
         C         C         0.35674   0.45376   0.72881   0.177132  
         B         B         0.27568   0.38978   0.72695   0.590678  
         C         C         0.49833   0.54662   0.74593   -0.196901           
         H         H         0.49884   0.58266   0.75135   0.113204  
         C         C         0.59443   0.59576   0.75273   -0.243761           
         C         C         0.54602   0.54803   0.74775   0.075319  
         C         C         0.40182   0.50029   0.73510   -0.231545           
         C         C         0.45010   0.50044   0.73851   0.079227  
         B         B         0.71903   0.61028   0.74739   0.588384  
         H         H         0.59565   0.63214   0.75742   0.141323  
         H         H         0.40186   0.53603   0.74032   0.141483  
         C         C         0.99807   0.09446   0.74565   -0.243972           
         C         C         0.99741   0.04694   0.73886   0.075393  
         C         C         0.90333   0.90501   0.74108   -0.246213           
         C         C         0.95025   0.95265   0.73595   0.077575  
         H         H         0.96418   0.09500   0.75928   0.141460  
         H         H         0.86863   0.90443   0.75300   0.141127  
         O         O         0.86566   0.81057   0.74081   -0.340773           
         C         C         0.04345   0.13869   0.73806   0.171188  
         O         O         0.05405   0.18904   0.74176   -0.340804           
         C         C         0.90496   0.86094   0.73504   0.173434  
         C         C         0.95207   -0.00035  0.74339   -0.197668           
         H         H         0.91747   -0.00060  0.75543   0.116621  
         O         O         0.12813   0.18932   0.71898   -0.339943           
         C         C         0.95064   0.86101   0.72383   0.174434  
         O         O         0.93993   0.81061   0.72028   -0.342670           
         C         C         0.08900   0.13892   0.72551   0.173889  
         B         B         0.10608   0.21951   0.72959   0.596015  
         C         C         0.04229   0.00014   0.71956   -0.195812           
         H         H         0.07667   0.00037   0.70624   0.116918  
         C         C         0.99622   0.90527   0.71726   -0.242837           
         C         C         0.99703   0.95282   0.72464   0.074548  
         C         C         0.09068   0.09488   0.71943   -0.241926           
         C         C         0.04412   0.04718   0.72677   0.075375  
         B         B         0.88783   0.78022   0.73214   0.598331  
         H         H         0.03035   0.90497   0.70441   0.140241  
         H         H         0.12523   0.09551   0.70630   0.140724  
         C         C         0.09158   0.49976   0.73217   -0.233896           
         C         C         0.04371   0.49986   0.73086   0.082751  
         C         C         0.99726   0.59505   0.73115   -0.249836           
         C         C         0.99666   0.54727   0.72991   0.080482  
         H         H         0.12784   0.53553   0.73036   0.141733  
         H         H         0.03322   0.63126   0.73014   0.142959  
         O         O         0.94232   0.63321   0.74172   -0.345341           
         C         C         0.08908   0.45321   0.73249   0.180344  
         O         O         0.12918   0.44269   0.73316   -0.341040           
         C         C         0.95119   0.59294   0.73450   0.174151  
         C         C         0.04266   0.54598   0.72942   -0.203738           
         H         H         0.07843   0.58207   0.72556   0.113528  
         O         O         0.05053   0.36583   0.72532   -0.346064           
         C         C         0.90327   0.54584   0.73160   0.176740  
         O         O         0.86352   0.55638   0.73335   -0.340750           
         C         C         0.04117   0.40607   0.72975   0.174372  
         B         B         0.10467   0.38902   0.72700   0.588955  
         C         C         0.94915   0.45302   0.73131   -0.201478           
         H         H         0.91309   0.41688   0.73329   0.114346  
         C         C         0.90043   0.49928   0.72983   -0.232861           
         C         C         0.94819   0.49915   0.73058   0.081020  
         C         C         0.99481   0.40395   0.73103   -0.246387           
         C         C         0.99524   0.45172   0.73169   0.076749  
         B         B         0.88840   0.61003   0.74119   0.589567  
         H         H         0.86404   0.46344   0.73049   0.142646  
         H         H         0.95877   0.36774   0.73161   0.141495  
         C         C         0.77774   0.63973   0.74378   -0.236371           
         C         C         0.85962   0.63966   0.74514   -0.243411           
         C         C         0.85877   0.72125   0.73701   -0.250543           
         C         C         0.80571   0.61333   0.74611   -0.008060           
         C         C         0.88572   0.69357   0.74154   0.009890  
         C         C         0.80476   0.69365   0.73807   0.009558  
         H         H         0.78339   0.71451   0.73535   0.105957  
         H         H         0.78520   0.57153   0.74818   0.111882  
         H         H         0.92742   0.71422   0.74002   0.107899  
         C         C         0.21674   0.36032   0.72881   -0.240022           
         C         C         0.13511   0.27844   0.72816   -0.253070           
         C         C         0.13411   0.35965   0.72527   -0.238912           
         C         C         0.18944   0.30637   0.72985   0.011141  
         C         C         0.10799   0.30573   0.72570   0.009626  
         C         C         0.18845   0.38634   0.72675   -0.009297           
         H         H         0.20903   0.42815   0.72677   0.112242  
         H         H         0.21101   0.28583   0.73147   0.107284  
         H         H         0.06612   0.28466   0.72615   0.107797  
         C         C         0.40784   0.40449   0.23021   -0.242969           
         C         C         0.45609   0.45231   0.23530   0.076113  
         C         C         0.60058   0.50015   0.24998   -0.234167           
         C         C         0.55213   0.49987   0.24593   0.082496  
         H         H         0.40738   0.36830   0.22802   0.140656  
         H         H         0.60110   0.46443   0.24828   0.141334  
         O         O         0.69607   0.55734   0.25551   -0.341451           
         C         C         0.36315   0.40647   0.22893   0.171576  
         O         O         0.31272   0.36619   0.22833   -0.346552           
         C         C         0.64514   0.54675   0.25319   0.176234  
         C         C         0.50406   0.45371   0.23929   -0.197426           
         H         H         0.50362   0.41754   0.23594   0.111854  
         O         O         0.31169   0.44295   0.22514   -0.341825           
         C         C         0.64470   0.59381   0.25253   0.177011  
         O         O         0.69463   0.63407   0.24992   -0.345504           
         C         C         0.36277   0.45355   0.22868   0.182016  
         B         B         0.28184   0.38929   0.22741   0.589593  
         C         C         0.50422   0.54653   0.24555   -0.203836           
         H         H         0.50476   0.58262   0.25046   0.114461  
         C         C         0.60033   0.59577   0.25378   -0.251642           
         C         C         0.55217   0.54794   0.24916   0.079988  
         C         C         0.40753   0.50013   0.23326   -0.232008           
         C         C         0.45607   0.50038   0.23808   0.081496  
         B         B         0.72543   0.61094   0.25065   0.590630  
         H         H         0.60090   0.63193   0.25723   0.144259  
         H         H         0.40709   0.53586   0.23536   0.141685  
         C         C         0.00084   0.09465   0.22819   -0.242430           
         C         C         0.00113   0.04711   0.22925   0.077405  
         C         C         0.90564   0.90521   0.22697   -0.241434           
         C         C         0.95355   0.95284   0.22763   0.077941  
         H         H         0.96484   0.09504   0.22856   0.143057  
         H         H         0.86937   0.90471   0.22863   0.142799  
         O         O         0.86884   0.81070   0.23240   -0.341139           
         C         C         0.04756   0.13882   0.22889   0.173907  
         O         O         0.05728   0.18910   0.22597   -0.341488           
         C         C         0.90847   0.86112   0.22940   0.174314  
         C         C         0.95459   -0.00001  0.22713   -0.194412           
         H         H         0.91841   0.00009   0.22779   0.114170  
         O         O         0.13565   0.18929   0.23269   -0.341225           
         C         C         0.95635   0.86135   0.23242   0.174697  
         O         O         0.94676   0.81115   0.23468   -0.344055           
         C         C         0.09560   0.13892   0.23350   0.172809  
         B         B         0.11142   0.21955   0.22800   0.598597  
         C         C         0.04918   0.00008   0.23414   -0.195673           
         H         H         0.08545   0.00007   0.23391   0.116122  
         C         C         0.00298   0.90550   0.23278   -0.243784           
         C         C         0.00259   0.95298   0.23171   0.072965  
         C         C         0.09829   0.09479   0.23540   -0.243195           
         C         C         0.05019   0.04721   0.23358   0.073961  
         B         B         0.89320   0.78062   0.23647   0.601477  
         H         H         0.03886   0.90505   0.23194   0.141534  
         H         H         0.13461   0.09524   0.23435   0.142422  
         C         C         0.09759   0.49937   0.23491   -0.234089           
         C         C         0.04963   0.49944   0.23288   0.078341  
         C         C         0.00364   0.59508   0.23357   -0.248761           
         C         C         0.00277   0.54715   0.23171   0.076292  
         H         H         0.13395   0.53523   0.23444   0.142432  
         H         H         0.03978   0.63123   0.23305   0.143063  
         O         O         0.94874   0.63366   0.24289   -0.346001           
         C         C         0.09505   0.45291   0.23391   0.178369  
         O         O         0.13526   0.44263   0.23401   -0.341079           
         C         C         0.95760   0.59327   0.23620   0.174339  
         C         C         0.04881   0.54562   0.23253   -0.197729           
         H         H         0.08515   0.58162   0.23187   0.112910  
         O         O         0.05674   0.36569   0.22537   -0.346427           
         C         C         0.90949   0.54622   0.23263   0.182995  
         O         O         0.86983   0.55695   0.23420   -0.342028           
         C         C         0.04716   0.40574   0.23050   0.171798  
         B         B         0.11090   0.38907   0.22695   0.590305  
         C         C         0.95467   0.45281   0.23033   -0.199360           
         H         H         0.91817   0.41684   0.23047   0.112707  
         C         C         0.90636   0.49956   0.22980   -0.234153           
         C         C         0.95400   0.49906   0.23068   0.081036  
         C         C         0.00066   0.40353   0.23167   -0.247480           
         C         C         0.00094   0.45130   0.23210   0.080734  
         B         B         0.89486   0.61066   0.24327   0.589366  
         H         H         0.86980   0.46392   0.23031   0.141992  
         H         H         0.96480   0.36715   0.23244   0.143195  
         C         C         0.78396   0.64026   0.24644   -0.239687           
         C         C         0.86602   0.64028   0.24820   -0.238279           
         C         C         0.86500   0.72177   0.24226   -0.253770           
         C         C         0.81196   0.61391   0.24872   -0.010844           
         C         C         0.89213   0.69422   0.24647   0.010886  
         C         C         0.81088   0.69414   0.24177   0.010928  
         H         H         0.78942   0.71489   0.23926   0.107428  
         H         H         0.79130   0.57211   0.25119   0.112276  
         H         H         0.93406   0.71506   0.24645   0.107279  
         C         C         0.22267   0.35985   0.22746   -0.237928           
         C         C         0.14064   0.27842   0.22602   -0.248600           
         C         C         0.14034   0.35992   0.22337   -0.242261           
         C         C         0.19513   0.30594   0.22868   0.009651  
         C         C         0.11373   0.30599   0.22258   0.008964  
         C         C         0.19471   0.38627   0.22520   -0.008164           
         H         H         0.21579   0.42808   0.22528   0.112467  
         H         H         0.21627   0.28496   0.23034   0.106107  
         H         H         0.07162   0.28529   0.22142   0.108128 

