
##########################################################################
#               Crystallographic Information Format file
#               Produced by PyCifRW module
#
#  This is a CIF file.  CIF has been adopted by the International
#  Union of Crystallography as the standard for data archiving and
#  transmission.
#
#  For information on this file format, follow the CIF links at
#  http://www.iucr.org
##########################################################################

data_image0

_cell_length_a                          29.3229
_cell_length_b                          29.6126
_cell_length_c                          23.7544
_cell_angle_alpha                       90.0889
_cell_angle_beta                        89.8778
_cell_angle_gamma                       120.843
_symmetry_space_group_name_H-M          'P 1'
_space_group_name_Hall                  'P 1'
loop_
  _atom_site_type_symbol
  _atom_site_label
  _atom_site_fract_x
  _atom_site_fract_y
  _atom_site_fract_z
  _atom_site_charge
         C         C         0.90639   0.40377   0.17713   -0.236179           
         C         C         0.59673   0.50180   0.17089   -0.239313           
         C         C         0.49552   0.09031   0.17911   -0.236329           
         C         C         0.09581   0.59440   0.17218   -0.236259           
         C         C         0.40675   0.49855   0.17101   -0.235486           
         C         C         0.50574   0.90891   0.17842   -0.238089           
         C         C         0.40782   0.90575   0.32860   -0.236654           
         C         C         0.50615   0.59613   0.32099   -0.237956           
         C         C         0.09528   0.49896   0.32442   -0.238189           
         C         C         0.59777   0.09660   0.32424   -0.234341           
         C         C         0.49654   0.40475   0.31981   -0.234980           
         C         C         0.90961   0.50492   0.32170   -0.235066           
         C         C         0.09803   0.59698   0.32171   -0.233703           
         C         C         0.40641   0.49906   0.32058   -0.236826           
         C         C         0.50761   0.90999   0.32659   -0.235021           
         C         C         0.90755   0.40720   0.32460   -0.235264           
         C         C         0.59635   0.50185   0.31938   -0.237754           
         C         C         0.49790   0.09219   0.32650   -0.235418           
         C         C         0.59493   0.09383   0.17585   -0.236929           
         C         C         0.49692   0.40479   0.17144   -0.236374           
         C         C         0.90818   0.50135   0.17561   -0.236995           
         C         C         0.40565   0.90405   0.18032   -0.238240           
         C         C         0.50593   0.59629   0.17291   -0.236570           
         C         C         0.09501   0.49729   0.17515   -0.235103           
         C         C         0.95210   0.45107   0.19267   0.033994  
         C         C         0.54994   0.49991   0.18801   0.035024  
         C         C         0.49940   0.04692   0.19562   0.034109  
         C         C         0.05093   0.54769   0.19034   0.035255  
         C         C         0.45373   0.50111   0.18811   0.034459  
         C         C         0.50176   0.95203   0.19576   0.034459  
         C         C         0.45449   0.95131   0.31144   0.036910  
         C         C         0.50237   0.54909   0.30327   0.035219  
         C         C         0.05117   0.50171   0.30673   0.035615  
         C         C         0.55053   0.05070   0.30910   0.034079  
         C         C         0.50032   0.45197   0.30305   0.033831  
         C         C         0.95417   0.50194   0.30618   0.033545  
         C         C         0.05242   0.54993   0.30547   0.033352  
         C         C         0.45324   0.50129   0.30312   0.035229  
         C         C         0.50360   0.95343   0.31057   0.032790  
         C         C         0.95308   0.45379   0.30730   0.035348  
         C         C         0.54944   0.49976   0.30288   0.034543  
         C         C         0.50137   0.04852   0.31008   0.034698  
         C         C         0.54845   0.04886   0.19434   0.035540  
         C         C         0.50085   0.45206   0.18821   0.035208  
         C         C         0.95288   0.49907   0.19195   0.035269  
         C         C         0.45255   0.94980   0.19664   0.034191  
         C         C         0.50265   0.54908   0.18857   0.034982  
         C         C         0.05039   0.49982   0.19167   0.033291  
         H         H         0.90532   0.36654   0.17773   0.137529  
         H         H         0.63494   0.53828   0.17148   0.139840  
         H         H         0.45807   0.08951   0.18117   0.139522  
         H         H         0.09675   0.63157   0.17172   0.137520  
         H         H         0.36896   0.46165   0.17095   0.137361  
         H         H         0.54352   0.91033   0.17859   0.139374  
         H         H         0.36951   0.90321   0.32834   0.137659  
         H         H         0.54367   0.63333   0.32024   0.139578  
         H         H         0.09473   0.46200   0.32483   0.139529  
         H         H         0.63593   0.09888   0.32240   0.136849  
         H         H         0.45890   0.36771   0.31953   0.137358  
         H         H         0.90987   0.54172   0.31999   0.137613  
         H         H         0.09980   0.63451   0.31979   0.136999  
         H         H         0.36824   0.46256   0.32012   0.138051  
         H         H         0.54520   0.91106   0.32496   0.137187  
         H         H         0.90610   0.36979   0.32484   0.136857  
         H         H         0.63461   0.53826   0.31814   0.139807  
         H         H         0.46039   0.09133   0.32640   0.137769  
         H         H         0.63287   0.09560   0.17518   0.137752  
         H         H         0.45930   0.36773   0.17265   0.137705  
         H         H         0.90850   0.53819   0.17559   0.139465  
         H         H         0.36724   0.90128   0.18183   0.140507  
         H         H         0.54324   0.63368   0.17425   0.137694  
         H         H         0.09537   0.46079   0.17699   0.137490  
         C         C         0.86197   0.40649   0.16279   0.171294  
         C         C         0.59236   0.45444   0.15562   0.171290  
         C         C         0.54219   0.13505   0.16227   0.169412  
         C         C         0.13986   0.59140   0.15703   0.171322  
         C         C         0.41058   0.54568   0.15635   0.171370  
         C         C         0.45890   0.86377   0.16306   0.171341  
         C         C         0.41230   0.86290   0.34332   0.171319  
         C         C         0.45929   0.59342   0.33714   0.169663  
         C         C         0.14031   0.54595   0.33954   0.170277  
         C         C         0.59378   0.13969   0.33948   0.169934  
         C         C         0.54346   0.40732   0.33508   0.170069  
         C         C         0.86438   0.45820   0.33707   0.169345  
         C         C         0.14168   0.59374   0.33811   0.168881  
         C         C         0.41071   0.54609   0.33697   0.171468  
         C         C         0.46085   0.86480   0.34218   0.170334  
         C         C         0.86354   0.41067   0.33880   0.171043  
         C         C         0.59203   0.45470   0.33496   0.171068  
         C         C         0.54508   0.13748   0.34076   0.170408  
         C         C         0.59061   0.13669   0.16061   0.170797  
         C         C         0.54371   0.40716   0.15582   0.170789  
         C         C         0.86294   0.45411   0.16170   0.169516  
         C         C         0.41015   0.86142   0.16424   0.169936  
         C         C         0.45884   0.59335   0.15774   0.170861  
         C         C         0.13957   0.54414   0.15860   0.170382  
         C         C         0.00107   0.45266   0.21565   -0.067398           
         C         C         0.55007   0.54766   0.21128   -0.068938           
         C         C         0.45248   0.99752   0.21964   -0.069705           
         C         C         0.00262   0.54710   0.21360   -0.071704           
         C         C         0.45348   0.45348   0.21120   -0.068191           
         C         C         0.54927   0.00183   0.21782   -0.070214           
         C         C         0.45371   0.99850   0.28840   -0.071669           
         C         C         0.54974   0.54758   0.28010   -0.070166           
         C         C         0.00145   0.45402   0.28454   -0.072278           
         C         C         0.55044   0.00283   0.28659   -0.070062           
         C         C         0.45311   0.45356   0.27997   -0.070618           
         C         C         0.00374   0.54880   0.28236   -0.068157           
         C         C         0.28138   0.63874   0.12894   -0.243151           
         C         C         0.36556   0.63961   0.12898   -0.243773           
         C         C         0.36621   0.72288   0.13108   -0.243833           
         C         C         0.72056   0.35997   0.13321   -0.241799           
         C         C         0.63642   0.35936   0.13010   -0.242803           
         C         C         0.63555   0.27597   0.13153   -0.244050           
         C         C         0.63809   0.27913   0.36752   -0.243136           
         C         C         0.63694   0.36144   0.36600   -0.243543           
         C         C         0.72206   0.36406   0.36626   -0.243331           
         C         C         0.36744   0.72345   0.37071   -0.242770           
         C         C         0.36653   0.64003   0.36929   -0.243298           
         C         C         0.28238   0.63948   0.36979   -0.243288           
         C         C         0.30969   0.61217   0.12838   0.000085  
         C         C         0.39321   0.69497   0.13017   -0.000076           
         C         C         0.31030   0.69407   0.13021   -0.001231           
         C         C         0.69232   0.38664   0.13167   -0.001526           
         C         C         0.60867   0.30400   0.13023   -0.001109           
         C         C         0.69146   0.30462   0.13275   -0.000840           
         C         C         0.61020   0.30616   0.36714   -0.001194           
         C         C         0.69286   0.38972   0.36570   -0.000995           
         C         C         0.69396   0.30872   0.36722   -0.001598           
         C         C         0.39429   0.69540   0.37004   -0.001085           
         C         C         0.31060   0.61277   0.36950   -0.000730           
         C         C         0.31151   0.69482   0.37053   -0.000620           
         H         H         0.28891   0.71516   0.13231   0.107176  
         H         H         0.28780   0.56931   0.12930   0.106428  
         H         H         0.43644   0.71656   0.13209   0.107290  
         H         H         0.71268   0.28336   0.13486   0.106704  
         H         H         0.71416   0.42947   0.13327   0.107311  
         H         H         0.56541   0.28230   0.13102   0.107693  
         H         H         0.71608   0.28832   0.36584   0.107245  
         H         H         0.56694   0.28368   0.36574   0.107756  
         H         H         0.71394   0.43249   0.36337   0.107257  
         H         H         0.29026   0.71607   0.36903   0.107233  
         H         H         0.43752   0.71707   0.36818   0.107012  
         H         H         0.28865   0.56996   0.36739   0.106964  
         H         H         0.00053   0.41657   0.20377   0.084788  
         H         H         0.58677   0.58349   0.19856   0.085129  
         H         H         0.41546   0.99562   0.20753   0.087225  
         H         H         0.00297   0.58262   0.19987   0.086898  
         H         H         0.41689   0.41774   0.19819   0.084557  
         H         H         0.58579   0.00328   0.20435   0.086316  
         H         H         0.41718   0.99689   0.30214   0.087232  
         H         H         0.58640   0.58323   0.29318   0.086575  
         H         H         0.00057   0.41827   0.29838   0.087069  
         H         H         0.58741   0.00470   0.29881   0.086337  
         H         H         0.41633   0.41790   0.29269   0.086870  
         H         H         0.00484   0.58512   0.29439   0.086369  
         O         O         0.18965   0.55359   0.14447   -0.341367           
         O         O         0.45036   0.63402   0.14438   -0.340385           
         O         O         0.37014   0.81118   0.14966   -0.340008           
         O         O         0.81310   0.44493   0.14710   -0.338743           
         O         O         0.55163   0.36615   0.14189   -0.340132           
         O         O         0.63055   0.18657   0.14475   -0.340384           
         O         O         0.55331   0.18651   0.35526   -0.340446           
         O         O         0.63212   0.44541   0.34990   -0.340485           
         O         O         0.81293   0.37045   0.35283   -0.340264           
         O         O         0.45274   0.81561   0.35564   -0.340285           
         O         O         0.37062   0.55537   0.35250   -0.340349           
         O         O         0.19213   0.63411   0.35265   -0.339527           
         O         O         0.81430   0.44934   0.35015   -0.338556           
         O         O         0.55160   0.36666   0.34993   -0.339930           
         O         O         0.63412   0.19022   0.35272   -0.340407           
         O         O         0.18978   0.55474   0.35517   -0.339642           
         O         O         0.45125   0.63403   0.35266   -0.340122           
         O         O         0.37230   0.81273   0.35804   -0.339435           
         O         O         0.45108   0.81516   0.14730   -0.340434           
         O         O         0.37032   0.55487   0.14166   -0.340008           
         O         O         0.18996   0.63192   0.14176   -0.339735           
         O         O         0.55033   0.18400   0.14752   -0.340704           
         O         O         0.63243   0.44458   0.14175   -0.341151           
         O         O         0.81121   0.36582   0.14977   -0.340225           
         B         B         0.78119   0.39006   0.14172   0.586000  
         B         B         0.60688   0.38969   0.13574   0.587062  
         B         B         0.60538   0.21586   0.13906   0.587537  
         B         B         0.22069   0.60820   0.13623   0.587600  
         B         B         0.39529   0.60975   0.13626   0.586348  
         B         B         0.39587   0.78273   0.14073   0.587370  
         B         B         0.39761   0.78355   0.36349   0.586233  
         B         B         0.39607   0.61008   0.36021   0.586605  
         B         B         0.22177   0.60954   0.36122   0.587066  
         B         B         0.60862   0.21900   0.36055   0.587845  
         B         B         0.60676   0.39072   0.35734   0.586670  
         B         B         0.78273   0.39476   0.35848   0.586717  
         C         C         0.90309   0.40477   0.67280   -0.235618           
         C         C         0.59445   0.50238   0.67440   -0.238125           
         C         C         0.49298   0.09122   0.67623   -0.236308           
         C         C         0.09390   0.59488   0.67446   -0.237994           
         C         C         0.40436   0.49872   0.67814   -0.236140           
         C         C         0.50325   0.90926   0.68034   -0.236529           
         C         C         0.40195   0.90437   0.82631   -0.237618           
         C         C         0.50491   0.59655   0.82670   -0.237477           
         C         C         0.09221   0.49590   0.82123   -0.236612           
         C         C         0.59111   0.09409   0.82813   -0.236561           
         C         C         0.49602   0.40547   0.82472   -0.236109           
         C         C         0.90589   0.50027   0.82226   -0.234284           
         C         C         0.09373   0.59330   0.82366   -0.234759           
         C         C         0.40524   0.49945   0.82693   -0.236036           
         C         C         0.50167   0.90861   0.82659   -0.238077           
         C         C         0.90412   0.40269   0.81968   -0.235271           
         C         C         0.59555   0.50290   0.82475   -0.236043           
         C         C         0.49144   0.09015   0.82583   -0.235597           
         C         C         0.59314   0.09648   0.67969   -0.235393           
         C         C         0.49458   0.40534   0.67488   -0.238230           
         C         C         0.90542   0.50260   0.67473   -0.234449           
         C         C         0.40338   0.90488   0.67849   -0.235734           
         C         C         0.50406   0.59598   0.67670   -0.236111           
         C         C         0.09129   0.49682   0.67252   -0.235220           
         C         C         0.94873   0.45145   0.68971   0.035055  
         C         C         0.54789   0.50014   0.69299   0.035425  
         C         C         0.49681   0.04816   0.69429   0.035489  
         C         C         0.04810   0.54777   0.69011   0.034213  
         C         C         0.45147   0.50117   0.69448   0.032631  
         C         C         0.49943   0.95318   0.69478   0.032227  
         C         C         0.44877   0.94973   0.80889   0.034798  
         C         C         0.50107   0.54948   0.80908   0.034068  
         C         C         0.04793   0.49873   0.80417   0.034252  
         C         C         0.54456   0.04881   0.81037   0.032314  
         C         C         0.49945   0.45260   0.80848   0.034491  
         C         C         0.95056   0.49810   0.80531   0.034519  
         C         C         0.04873   0.54675   0.80531   0.035221  
         C         C         0.45201   0.50160   0.80928   0.034500  
         C         C         0.49794   0.95188   0.80928   0.035634  
         C         C         0.94972   0.45009   0.80426   0.033464  
         C         C         0.54845   0.50050   0.80832   0.034467  
         C         C         0.49545   0.04676   0.80949   0.035097  
         C         C         0.54611   0.05060   0.69549   0.033908  
         C         C         0.49877   0.45232   0.69331   0.034731  
         C         C         0.94984   0.49961   0.69069   0.033486  
         C         C         0.45026   0.95094   0.69404   0.034783  
         C         C         0.50053   0.54901   0.69389   0.036546  
         C         C         0.04689   0.49958   0.68910   0.032791  
         H         H         0.90144   0.36725   0.67298   0.137110  
         H         H         0.63275   0.53876   0.67500   0.139960  
         H         H         0.45512   0.08958   0.67520   0.137649  
         H         H         0.09575   0.63248   0.67615   0.140046  
         H         H         0.36627   0.46214   0.67943   0.139295  
         H         H         0.54083   0.91032   0.68180   0.139369  
         H         H         0.36380   0.90216   0.82525   0.139655  
         H         H         0.54259   0.63358   0.82579   0.139251  
         H         H         0.09211   0.45916   0.81964   0.138713  
         H         H         0.62927   0.09632   0.82816   0.139318  
         H         H         0.45863   0.36813   0.82413   0.137377  
         H         H         0.90609   0.53708   0.82303   0.137165  
         H         H         0.09494   0.63061   0.82397   0.137079  
         H         H         0.36705   0.46294   0.82630   0.137644  
         H         H         0.53918   0.90947   0.82560   0.139377  
         H         H         0.90314   0.36551   0.81837   0.136993  
         H         H         0.63344   0.53970   0.82458   0.137220  
         H         H         0.45389   0.08914   0.82438   0.138038  
         H         H         0.63148   0.09912   0.68158   0.137061  
         H         H         0.45707   0.36817   0.67609   0.139917  
         H         H         0.90581   0.53947   0.67622   0.137522  
         H         H         0.36519   0.90257   0.67844   0.137885  
         H         H         0.54159   0.63316   0.67671   0.137684  
         H         H         0.09089   0.45992   0.67262   0.137423  
         C         C         0.85912   0.40820   0.65835   0.170390  
         C         C         0.58978   0.45531   0.65747   0.170971  
         C         C         0.54001   0.13658   0.66138   0.169999  
         C         C         0.13786   0.59163   0.65943   0.170117  
         C         C         0.40841   0.54568   0.66229   0.169939  
         C         C         0.45627   0.86353   0.66677   0.170484  
         C         C         0.40619   0.86168   0.84276   0.170077  
         C         C         0.45809   0.59396   0.84301   0.170388  
         C         C         0.13689   0.54256   0.83805   0.169413  
         C         C         0.58664   0.13693   0.84310   0.169641  
         C         C         0.54319   0.40827   0.83930   0.171680  
         C         C         0.86065   0.45287   0.83594   0.169975  
         C         C         0.13750   0.58998   0.83940   0.170770  
         C         C         0.40952   0.54657   0.84305   0.170901  
         C         C         0.45481   0.86375   0.84277   0.170827  
         C         C         0.85972   0.40528   0.83451   0.170163  
         C         C         0.59170   0.45570   0.83930   0.170398  
         C         C         0.53820   0.13520   0.84164   0.170788  
         C         C         0.58885   0.13917   0.66356   0.170934  
         C         C         0.54110   0.40809   0.65741   0.170345  
         C         C         0.86028   0.45591   0.65901   0.169410  
         C         C         0.40767   0.86151   0.66565   0.171513  
         C         C         0.45694   0.59309   0.66173   0.169602  
         C         C         0.13659   0.54387   0.65836   0.170095  
         C         C         0.99744   0.45202   0.71180   -0.069930           
         C         C         0.54809   0.54779   0.71656   -0.069817           
         C         C         0.44945   0.99825   0.71677   -0.069519           
         C         C         -0.00038  0.54670   0.71383   -0.068711           
         C         C         0.45160   0.45361   0.71732   -0.069440           
         C         C         0.54632   0.00290   0.71802   -0.067768           
         C         C         0.44858   0.99731   0.78572   -0.069228           
         C         C         0.54834   0.54807   0.78539   -0.069391           
         C         C         0.99837   0.45150   0.78063   -0.069435           
         C         C         0.54540   0.00174   0.78685   -0.069714           
         C         C         0.45188   0.45387   0.78600   -0.068624           
         C         C         0.00006   0.54597   0.78272   -0.068061           
         C         C         0.27922   0.63790   0.63265   -0.244260           
         C         C         0.36363   0.63935   0.63358   -0.243542           
         C         C         0.36356   0.72218   0.63707   -0.243762           
         C         C         0.71794   0.36223   0.62931   -0.242606           
         C         C         0.63347   0.36085   0.62672   -0.245052           
         C         C         0.63321   0.27776   0.62965   -0.243569           
         C         C         0.63241   0.27654   0.86935   -0.244582           
         C         C         0.63569   0.36099   0.86751   -0.244945           
         C         C         0.71854   0.35922   0.86565   -0.242927           
         C         C         0.36244   0.72243   0.87251   -0.243086           
         C         C         0.36417   0.64022   0.87213   -0.243418           
         C         C         0.27868   0.63711   0.87043   -0.242961           
         C         C         0.30776   0.61158   0.63209   -0.000711           
         C         C         0.39089   0.69463   0.63611   -0.001228           
         C         C         0.30774   0.69319   0.63485   -0.000498           
         C         C         0.68938   0.38853   0.62778   -0.000339           
         C         C         0.60603   0.30548   0.62756   0.000681  
         C         C         0.68913   0.30685   0.63001   -0.001782           
         C         C         0.60673   0.30566   0.86915   -0.000373           
         C         C         0.69150   0.38710   0.86606   -0.000538           
         C         C         0.68831   0.30397   0.86762   -0.000771           
         C         C         0.39057   0.69556   0.87293   -0.000467           
         C         C         0.30819   0.61172   0.87097   -0.001010           
         C         C         0.30655   0.69250   0.87137   -0.001452           
         H         H         0.28597   0.71391   0.63652   0.107692  
         H         H         0.28619   0.56875   0.63219   0.107479  
         H         H         0.43405   0.71655   0.63927   0.107321  
         H         H         0.71073   0.28601   0.63295   0.107109  
         H         H         0.71091   0.43137   0.62915   0.107238  
         H         H         0.56276   0.28366   0.62867   0.107231  
         H         H         0.70843   0.28164   0.86596   0.106510  
         H         H         0.56349   0.28506   0.86854   0.107937  
         H         H         0.71436   0.42987   0.86340   0.107420  
         H         H         0.28427   0.71269   0.86941   0.107544  
         H         H         0.43383   0.71823   0.87208   0.107124  
         H         H         0.28735   0.56894   0.86885   0.107165  
         H         H         0.99655   0.41620   0.69806   0.086650  
         H         H         0.58461   0.58356   0.70343   0.084747  
         H         H         0.41267   0.99636   0.70363   0.084931  
         H         H         0.00038   0.58281   0.70176   0.086037  
         H         H         0.41497   0.41777   0.70464   0.086379  
         H         H         0.58334   0.00498   0.70532   0.085705  
         H         H         0.41161   0.99542   0.79817   0.086580  
         H         H         0.58508   0.58384   0.79795   0.086456  
         H         H         0.99788   0.41551   0.79257   0.086303  
         H         H         0.58209   0.00338   0.79986   0.086009  
         H         H         0.41535   0.41810   0.79910   0.086506  
         H         H         0.00067   0.58172   0.79619   0.084785  
         O         O         0.18651   0.55280   0.64454   -0.339229           
         O         O         0.44866   0.63369   0.64725   -0.339393           
         O         O         0.36763   0.81091   0.65254   -0.340132           
         O         O         0.81048   0.44722   0.64485   -0.339354           
         O         O         0.54883   0.36732   0.64192   -0.340447           
         O         O         0.62912   0.18951   0.64959   -0.340559           
         O         O         0.54637   0.18440   0.85538   -0.339820           
         O         O         0.63204   0.44625   0.85292   -0.340299           
         O         O         0.80900   0.36444   0.84758   -0.339173           
         O         O         0.44683   0.81498   0.85801   -0.342089           
         O         O         0.36942   0.55602   0.85804   -0.340846           
         O         O         0.18755   0.63015   0.85524   -0.340292           
         O         O         0.81062   0.44344   0.85013   -0.339276           
         O         O         0.55149   0.36756   0.85295   -0.341375           
         O         O         0.62661   0.18695   0.85825   -0.340962           
         O         O         0.18673   0.55161   0.85277   -0.340678           
         O         O         0.44987   0.63462   0.85804   -0.340403           
         O         O         0.36611   0.81153   0.85803   -0.340604           
         O         O         0.44817   0.81409   0.65469   -0.340612           
         O         O         0.36814   0.55487   0.64769   -0.339501           
         O         O         0.18870   0.63212   0.64667   -0.339625           
         O         O         0.54811   0.18521   0.64508   -0.340081           
         O         O         0.62968   0.44564   0.64225   -0.341291           
         O         O         0.80849   0.36802   0.64420   -0.340490           
         B         B         0.77858   0.39252   0.63762   0.587352  
         B         B         0.60392   0.39094   0.63441   0.587366  
         B         B         0.60344   0.21783   0.63953   0.587072  
         B         B         0.21855   0.60763   0.63923   0.586779  
         B         B         0.39343   0.60960   0.64064   0.586687  
         B         B         0.39314   0.78194   0.64674   0.588120  
         B         B         0.39163   0.78263   0.86504   0.588021  
         B         B         0.39463   0.61082   0.86489   0.587084  
         B         B         0.21803   0.60619   0.86147   0.587186  
         B         B         0.60148   0.21635   0.86317   0.588360  
         B         B         0.60670   0.39150   0.85969   0.588650  
         B         B         0.77898   0.38861   0.85613   0.586448 

