
##########################################################################
#               Crystallographic Information Format file
#               Produced by PyCifRW module
#
#  This is a CIF file.  CIF has been adopted by the International
#  Union of Crystallography as the standard for data archiving and
#  transmission.
#
#  For information on this file format, follow the CIF links at
#  http://www.iucr.org
##########################################################################

data_image0

_cell_length_a                          42.7772
_cell_length_b                          42.6092
_cell_length_c                          7.98235
_cell_angle_alpha                       65.805
_cell_angle_beta                        118.111
_cell_angle_gamma                       120.189
_symmetry_space_group_name_H-M          'P 1'
_space_group_name_Hall                  'P 1'
loop_
  _atom_site_type_symbol
  _atom_site_label
  _atom_site_fract_x
  _atom_site_fract_y
  _atom_site_fract_z
  _atom_site_charge
         C         C         0.45419   0.49015   0.01547   0.067355  
         C         C         0.43577   0.50919   0.01941   -0.099966           
         C         C         0.43564   0.45143   0.01110   -0.135515           
         H         H         0.40640   0.49411   0.02054   0.111444  
         H         H         0.40631   0.43653   0.01253   0.108949  
         C         C         0.38704   0.80689   0.99026   0.171181  
         C         C         0.35444   0.77476   -0.00376  -0.227355           
         C         C         0.32227   0.70807   0.00451   -0.081567           
         C         C         0.35498   0.74159   -0.00066  0.095041  
         H         H         0.32937   0.77444   0.00147   0.149577  
         O         O         0.39400   0.84221   0.99177   -0.338572           
         C         C         0.55080   0.51129   0.01016   0.066394  
         C         C         0.56917   0.49242   0.00437   -0.098195           
         C         C         0.56949   0.54995   0.01582   -0.135204           
         H         H         0.59858   0.50757   0.00383   0.110844  
         H         H         0.59892   0.56478   0.01565   0.108968  
         C         C         0.61407   0.19607   0.00201   0.169174  
         C         C         0.64682   0.22798   0.99482   -0.224390           
         C         C         0.67968   0.29468   0.98798   -0.082003           
         C         C         0.70814   0.32352   0.98477   -0.079502           
         C         C         0.64691   0.26126   0.99413   0.094534  
         H         H         0.67144   0.22794   0.98671   0.149175  
         O         O         0.60664   0.16066   -0.00031  -0.337774           
         C         C         0.51208   0.54867   0.01869   0.069591  
         C         C         0.49242   0.56652   0.02171   -0.101996           
         C         C         0.55089   0.56789   0.01919   -0.139745           
         H         H         0.50696   0.59598   0.02400   0.110681  
         H         H         0.56528   0.59728   0.02287   0.109443  
         C         C         0.19605   0.61244   0.00648   0.174542  
         C         C         0.22766   0.64574   0.00841   -0.223332           
         C         C         0.29377   0.67926   0.00728   -0.080172           
         C         C         0.26081   0.64590   0.00844   0.096931  
         H         H         0.22752   0.67084   0.01217   0.149775  
         O         O         0.16077   0.60496   0.00829   -0.339690           
         C         C         0.49284   0.45281   0.00512   0.067532  
         C         C         0.51244   0.43514   -0.00015  -0.103920           
         C         C         0.45413   0.43357   0.00603   -0.134710           
         H         H         0.49785   0.40576   -0.00391  0.111236  
         H         H         0.43968   0.40422   0.00187   0.108950  
         C         C         0.80623   0.38790   0.98428   0.169662  
         C         C         0.77399   0.35524   0.98303   -0.223589           
         C         C         0.74153   0.35641   0.98310   0.094572  
         H         H         0.77304   0.32958   0.97938   0.150270  
         O         O         0.84108   0.39403   0.98256   -0.337600           
         B         B         0.43189   0.86410   0.99090   0.592375  
         B         B         0.56891   0.13904   0.00302   0.590300  
         C         C         0.45440   0.54727   0.02180   -0.226915           
         C         C         0.49282   0.51002   0.01466   0.009095  
         C         C         0.55043   0.45453   -0.00103  -0.224665           
         C         C         0.51212   0.49141   0.01020   0.005814  
         C         C         0.51004   0.96330   0.99371   0.065617  
         C         C         0.49057   0.92525   0.99246   -0.100510           
         C         C         0.54832   0.98411   0.98634   -0.135332           
         H         H         0.50493   0.91100   0.98518   0.108534  
         H         H         0.56227   0.96976   0.97664   0.112315  
         C         C         0.19632   0.57980   0.00587   0.168698  
         C         C         0.22820   0.57882   0.00686   -0.225758           
         C         C         0.29420   0.61283   0.00715   -0.085638           
         C         C         0.26105   0.61241   0.00758   0.092389  
         H         H         0.22836   0.55348   0.00613   0.148171  
         O         O         0.16125   0.55089   0.00779   -0.337184           
         C         C         0.49092   0.03968   0.00549   0.067100  
         C         C         0.51028   0.07779   0.00525   -0.102653           
         C         C         0.45267   0.01890   0.01303   -0.136588           
         H         H         0.49589   0.09208   0.01182   0.109776  
         H         H         0.43881   0.03336   0.02238   0.111802  
         C         C         0.80721   0.42122   0.98415   0.170727  
         C         C         0.77606   0.42353   0.98352   -0.228767           
         C         C         0.70993   0.39122   0.98455   -0.087354           
         C         C         0.68159   0.39139   0.98616   -0.081358           
         C         C         0.74253   0.39057   0.98353   0.092427  
         H         H         0.77699   0.44942   0.98421   0.148155  
         O         O         0.84263   0.44927   0.98116   -0.336616           
         C         C         0.45267   0.96221   0.00556   0.071620  
         C         C         0.43429   0.92425   0.00261   -0.108515           
         C         C         0.43439   0.98177   0.01356   -0.134286           
         H         H         0.40518   0.90902   0.00780   0.108105  
         H         H         0.40560   0.96623   0.02250   0.111820  
         C         C         0.38911   0.58030   0.02078   0.168288  
         C         C         0.35591   0.57921   0.01639   -0.215950           
         C         C         0.32284   0.61307   0.00693   -0.081923           
         C         C         0.35595   0.61292   0.00929   0.090941  
         H         H         0.33045   0.55367   0.01645   0.149417  
         O         O         0.39593   0.55156   0.02436   -0.337659           
         C         C         0.54827   0.04074   0.99387   0.072030  
         C         C         0.56658   0.07874   0.99562   -0.112525           
         C         C         0.56659   0.02123   0.98592   -0.134658           
         H         H         0.59568   0.09397   0.99039   0.111950  
         H         H         0.59536   0.03688   0.97664   0.111719  
         C         C         0.61558   0.42324   0.98436   0.169078  
         C         C         0.64849   0.42487   0.98213   -0.215798           
         C         C         0.64874   0.39135   0.98816   0.092447  
         H         H         0.67350   0.45070   0.97702   0.147536  
         O         O         0.60856   0.45159   0.98411   -0.339305           
         B         B         0.13948   0.56679   0.00934   0.587316  
         B         B         0.86328   0.43215   0.97936   0.587039  
         C         C         0.45278   0.90550   -0.00393  -0.232253           
         C         C         0.49094   0.98219   -0.00043  0.005123  
         C         C         0.54799   0.09755   0.00068   -0.233180           
         C         C         0.51002   0.02076   0.00013   0.003091  
         C         C         0.04132   0.54645   0.01163   0.073815  
         C         C         0.07944   0.56456   0.01505   -0.114099           
         C         C         0.02222   0.56496   0.02121   -0.134611           
         H         H         0.09491   0.59373   0.02354   0.110760  
         H         H         0.03843   0.59371   0.03650   0.111887  
         C         C         0.42188   0.61326   0.01886   0.173137  
         C         C         0.42294   0.64675   0.01149   -0.214897           
         C         C         0.38913   0.68005   0.00186   -0.079627           
         C         C         0.38945   0.64674   0.00648   0.092725  
         H         H         0.44826   0.67236   0.00852   0.147550  
         O         O         0.45034   0.60605   0.02284   -0.338899           
         C         C         0.96124   0.45146   0.97481   0.070359  
         C         C         0.92299   0.43354   0.97023   -0.110451           
         C         C         0.98066   0.43291   0.96814   -0.135994           
         H         H         0.90724   0.40448   0.95978   0.109123  
         H         H         0.96470   0.40408   0.95417   0.114510  
         C         C         0.58330   0.38994   0.99104   0.173571  
         C         C         0.58249   0.35667   -0.00255  -0.213530           
         C         C         0.61563   0.32389   -0.00060  -0.074027           
         C         C         0.61450   0.29472   -0.00095  -0.090626           
         C         C         0.61569   0.35725   -0.00388  0.089581  
         H         H         0.55764   0.33077   0.00536   0.149162  
         O         O         0.55502   0.39646   0.99351   -0.338779           
         C         C         0.03953   0.48899   0.99242   0.066378  
         C         C         0.07797   0.50812   -0.00011  -0.103932           
         C         C         0.01824   0.45080   0.97778   -0.139187           
         H         H         0.09207   0.49355   0.99338   0.110744  
         H         H         0.03261   0.43658   0.97067   0.112413  
         C         C         0.41962   0.80718   0.98745   0.172199  
         C         C         0.42128   0.77535   0.99086   -0.229674           
         C         C         0.38873   0.70864   0.00011   -0.088470           
         C         C         0.38845   0.74186   -0.00298  0.091517  
         H         H         0.44655   0.77561   0.98799   0.148164  
         O         O         0.44794   0.84276   0.98613   -0.338400           
         C         C         0.96331   0.50893   -0.00349  0.065455  
         C         C         0.92494   0.48990   0.98958   -0.100631           
         C         C         0.98479   0.54700   0.01380   -0.133658           
         H         H         0.91094   0.50432   -0.00146  0.111431  
         H         H         0.97075   0.56111   0.02480   0.112503  
         C         C         0.58188   0.19610   0.00729   0.168394  
         C         C         0.58083   0.22807   0.00625   -0.228842           
         C         C         0.61387   0.26128   -0.00040  0.094325  
         H         H         0.55596   0.22807   0.01180   0.148136  
         O         O         0.55329   0.16064   0.00882   -0.336344           
         B         B         0.43386   0.56784   0.02462   0.583644  
         B         B         0.57105   0.43462   0.99096   0.581613  
         C         C         0.09806   0.54581   0.00969   -0.229344           
         C         C         0.02076   0.50830   -0.00268  0.003164  
         C         C         0.90463   0.45231   0.97769   -0.230125           
         C         C         0.98186   0.48959   0.98962   0.005006  
         C         C         0.45049   0.48642   0.51889   0.066512  
         C         C         0.43197   0.50549   0.52169   -0.098656           
         C         C         0.43200   0.44760   0.51702   -0.135971           
         H         H         0.40266   0.49033   0.52363   0.110352  
         H         H         0.40279   0.43274   0.52020   0.108121  
         C         C         0.38600   0.80415   0.49539   0.170952  
         C         C         0.35355   0.77205   0.50515   -0.225037           
         C         C         0.32077   0.70551   0.51015   -0.081607           
         C         C         0.35345   0.73896   0.50318   0.094409  
         H         H         0.32914   0.77177   0.51693   0.148298  
         O         O         0.39342   0.83942   0.49992   -0.338742           
         C         C         0.54662   0.50763   0.50794   0.068108  
         C         C         0.56482   0.48868   0.50139   -0.099724           
         C         C         0.56514   0.54644   0.51055   -0.132199           
         H         H         0.59395   0.50386   0.49688   0.110252  
         H         H         0.59420   0.56148   0.50513   0.107861  
         C         C         0.61274   0.19349   0.50014   0.170732  
         C         C         0.64532   0.22560   0.49268   -0.225790           
         C         C         0.67778   0.29234   0.48705   -0.082877           
         C         C         0.70600   0.32144   0.48493   -0.078479           
         C         C         0.64514   0.25875   0.49228   0.093539  
         H         H         0.67007   0.22584   0.48445   0.149273  
         O         O         0.60562   0.15808   0.49922   -0.337823           
         C         C         0.50823   0.54499   0.52008   0.066493  
         C         C         0.48855   0.56283   0.52316   -0.105939           
         C         C         0.54681   0.56428   0.51715   -0.136840           
         H         H         0.50314   0.59227   0.52566   0.114268  
         H         H         0.56110   0.59374   0.51909   0.109414  
         C         C         0.19367   0.61264   0.50806   0.172871  
         C         C         0.22602   0.64526   0.51124   -0.221064           
         C         C         0.29210   0.67687   0.51255   -0.079816           
         C         C         0.25854   0.64413   0.51175   0.092598  
         H         H         0.22705   0.67087   0.51618   0.149160  
         O         O         0.15875   0.60640   0.50954   -0.340105           
         C         C         0.48902   0.44889   0.50968   0.069061  
         C         C         0.50852   0.43110   0.50455   -0.104389           
         C         C         0.45047   0.42961   0.51301   -0.137773           
         H         H         0.49412   0.40156   0.50406   0.111237  
         H         H         0.43613   0.40013   0.51147   0.109061  
         C         C         0.80366   0.38800   0.48500   0.171834  
         C         C         0.77198   0.35478   0.48363   -0.221168           
         C         C         0.73896   0.35481   0.48389   0.095312  
         H         H         0.77186   0.32960   0.47918   0.149504  
         O         O         0.83885   0.39527   0.48284   -0.338550           
         B         B         0.43076   0.86139   0.49137   0.591863  
         B         B         0.56789   0.13625   0.50262   0.589090  
         C         C         0.45046   0.54360   0.52273   -0.226216           
         C         C         0.48903   0.50629   0.51700   0.008359  
         C         C         0.54622   0.45057   0.49986   -0.224876           
         C         C         0.50821   0.48763   0.51195   0.007065  
         C         C         0.50903   0.96048   0.49453   0.067698  
         C         C         0.48952   0.92246   0.49302   -0.102881           
         C         C         0.54743   0.98111   0.48886   -0.136292           
         H         H         0.50387   0.90816   0.48623   0.109032  
         H         H         0.56139   0.96653   0.48122   0.112690  
         C         C         0.19264   0.57942   0.50643   0.168793  
         C         C         0.22383   0.57723   0.50659   -0.229350           
         C         C         0.29019   0.60955   0.50909   -0.090640           
         C         C         0.25747   0.61012   0.50912   0.093238  
         H         H         0.22291   0.55148   0.50399   0.148862  
         O         O         0.15716   0.55134   0.50844   -0.337239           
         C         C         0.48986   0.03692   0.50513   0.065546  
         C         C         0.50929   0.07503   0.50505   -0.099318           
         C         C         0.45157   0.01613   0.51254   -0.134532           
         H         H         0.49505   0.08942   0.51206   0.109818  
         H         H         0.43762   0.03047   0.52237   0.112211  
         C         C         0.80355   0.42076   0.48512   0.167952  
         C         C         0.77184   0.42193   0.48504   -0.226593           
         C         C         0.70589   0.38803   0.48603   -0.086309           
         C         C         0.67727   0.38759   0.48760   -0.081519           
         C         C         0.73892   0.38839   0.48487   0.093769  
         H         H         0.77188   0.44732   0.48655   0.148673  
         O         O         0.83861   0.44956   0.48230   -0.337023           
         C         C         0.45153   0.95951   0.50430   0.070227  
         C         C         0.43309   0.92158   0.50088   -0.110809           
         C         C         0.43325   0.97903   0.51239   -0.133230           
         H         H         0.40387   0.90644   0.50439   0.109402  
         H         H         0.40447   0.96338   0.52134   0.111413  
         C         C         0.38462   0.57625   0.52052   0.172503  
         C         C         0.35155   0.57514   0.51816   -0.218061           
         C         C         0.31860   0.60927   0.50911   -0.077202           
         C         C         0.35152   0.60893   0.50991   0.089903  
         H         H         0.32627   0.54951   0.52191   0.147895  
         O         O         0.39172   0.54754   0.52540   -0.340082           
         C         C         0.54728   0.03789   0.49410   0.071934  
         C         C         0.56555   0.07591   0.49509   -0.108307           
         C         C         0.56570   0.01825   0.48797   -0.136209           
         H         H         0.59461   0.09112   0.48945   0.108812  
         H         H         0.59458   0.03381   0.48016   0.113142  
         C         C         0.61098   0.41912   0.48379   0.172574  
         C         C         0.64400   0.42080   0.48277   -0.216733           
         C         C         0.64427   0.38731   0.48884   0.093084  
         H         H         0.66910   0.44660   0.47917   0.149294  
         O         O         0.60402   0.44743   0.48401   -0.340754           
         B         B         0.13645   0.56836   0.51069   0.588818  
         B         B         0.86018   0.43349   0.48030   0.588352  
         C         C         0.45168   0.90280   0.49556   -0.232040           
         C         C         0.48988   0.97943   0.49933   0.003694  
         C         C         0.54699   0.09474   0.50027   -0.234543           
         C         C         0.50899   0.01798   0.50003   0.004754  
         C         C         0.03842   0.54872   0.51599   0.070759  
         C         C         0.07669   0.56675   0.52082   -0.110349           
         C         C         0.01904   0.56716   0.52400   -0.136879           
         H         H         0.09251   0.59567   0.53367   0.111807  
         H         H         0.03516   0.59584   0.54024   0.112396  
         C         C         0.41716   0.60935   0.51550   0.174011  
         C         C         0.41814   0.64289   0.50653   -0.214801           
         C         C         0.38490   0.67643   0.49797   -0.078728           
         C         C         0.38483   0.64284   0.50370   0.092754  
         H         H         0.44326   0.66857   0.50022   0.148836  
         O         O         0.44563   0.60237   0.51824   -0.340023           
         C         C         0.95825   0.45383   0.47661   0.073821  
         C         C         0.92012   0.43570   0.47309   -0.115144           
         C         C         0.97745   0.43541   0.46693   -0.135605           
         H         H         0.90463   0.40657   0.46392   0.112223  
         H         H         0.96134   0.40668   0.45129   0.111893  
         C         C         0.57867   0.38580   0.48975   0.172100  
         C         C         0.57790   0.35257   0.49571   -0.216185           
         C         C         0.61168   0.32010   0.49794   -0.078003           
         C         C         0.61195   0.29161   0.49748   -0.088889           
         C         C         0.61121   0.35319   0.49526   0.089673  
         H         H         0.55300   0.32668   0.50249   0.148698  
         O         O         0.55036   0.39231   0.49225   -0.338357           
         C         C         0.03629   0.49151   0.49185   0.068275  
         C         C         0.07460   0.51066   0.49796   -0.101204           
         C         C         0.01488   0.45347   0.47430   -0.133825           
         H         H         0.08850   0.49633   0.48758   0.109722  
         H         H         0.02901   0.43951   0.46288   0.112369  
         C         C         0.41781   0.80452   0.48407   0.169250  
         C         C         0.41894   0.77269   0.48355   -0.228222           
         C         C         0.38582   0.70573   0.49546   -0.086592           
         C         C         0.38626   0.73921   0.49383   0.092570  
         H         H         0.44369   0.77300   0.47492   0.147589  
         O         O         0.44611   0.84016   0.47980   -0.337867           
         C         C         0.95999   0.51124   0.49650   0.068490  
         C         C         0.92150   0.49213   0.48825   -0.102556           
         C         C         0.98138   0.54934   0.51298   -0.137129           
         H         H         0.90728   0.50669   0.49391   0.110190  
         H         H         0.96714   0.56357   0.52117   0.110385  
         C         C         0.58043   0.19325   0.50555   0.170065  
         C         C         0.57909   0.22505   0.50460   -0.229878           
         C         C         0.61196   0.25847   0.49779   0.091691  
         H         H         0.55410   0.22474   0.51063   0.147961  
         O         O         0.55205   0.15770   0.50800   -0.335628           
         B         B         0.42956   0.56406   0.52360   0.582274  
         B         B         0.56651   0.43047   0.49065   0.582767  
         C         C         0.09502   0.54816   0.51157   -0.232033           
         C         C         0.01772   0.51069   0.49969   0.004974  
         C         C         0.90149   0.45443   0.47853   -0.230342           
         C         C         0.97878   0.49195   0.49160   0.000766 

