
##########################################################################
#               Crystallographic Information Format file
#               Produced by PyCifRW module
#
#  This is a CIF file.  CIF has been adopted by the International
#  Union of Crystallography as the standard for data archiving and
#  transmission.
#
#  For information on this file format, follow the CIF links at
#  http://www.iucr.org
##########################################################################

data_image0

_cell_length_a                          45.4057
_cell_length_b                          44.9999
_cell_length_c                          7.98766
_cell_angle_alpha                       118.257
_cell_angle_beta                        87.1529
_cell_angle_gamma                       119.927
_symmetry_space_group_name_H-M          'P 1'
_space_group_name_Hall                  'P 1'
loop_
  _atom_site_type_symbol
  _atom_site_label
  _atom_site_fract_x
  _atom_site_fract_y
  _atom_site_fract_z
  _atom_site_charge
         C         C         0.44672   0.50075   0.01468   0.070912  
         C         C         0.42894   0.51880   0.01451   -0.109085           
         C         C         0.43002   0.46464   0.02020   -0.133490           
         H         H         0.40153   0.50505   0.02016   0.108991  
         H         H         0.40284   0.45152   0.02963   0.111474  
         C         C         0.38131   0.79491   0.98386   0.174119  
         C         C         0.34997   0.76409   0.97614   -0.215663           
         C         C         0.31925   0.70179   0.97970   -0.078977           
         C         C         0.29290   0.67509   0.98576   -0.088009           
         C         C         0.35029   0.73310   0.97930   0.092567  
         H         H         0.32577   0.76323   0.96684   0.148675  
         O         O         0.38789   0.82845   0.98413   -0.339335           
         C         C         0.53712   0.51866   -0.00357  0.072699  
         C         C         0.55485   0.50049   0.99560   -0.109368           
         C         C         0.55387   0.55484   0.99130   -0.137208           
         H         H         0.58235   0.51441   0.99165   0.108418  
         H         H         0.58112   0.56801   0.98291   0.113976  
         C         C         0.60091   0.16583   0.01396   0.173210  
         C         C         0.63213   0.19590   0.01709   -0.213747           
         C         C         0.66293   0.25821   0.01507   -0.063553           
         C         C         0.68962   0.28481   0.00806   -0.023893           
         C         C         0.63213   0.22746   0.01761   0.082895  
         H         H         0.65606   0.19602   0.02003   0.152097  
         O         O         0.59411   0.13224   0.01351   -0.337365           
         C         C         0.48361   0.46419   0.00620   0.067331  
         C         C         0.50230   0.44678   0.00181   -0.099482           
         C         C         0.44759   0.44699   0.01515   -0.139358           
         H         H         0.48914   0.41932   0.00608   0.109944  
         H         H         0.43459   0.41982   0.02179   0.114252  
         C         C         0.83708   0.40255   -0.00239  0.171766  
         C         C         0.80717   0.37116   0.99483   -0.224822           
         C         C         0.74522   0.34065   0.99382   -0.069935           
         C         C         0.71869   0.31391   0.00081   -0.017297           
         C         C         0.77609   0.37146   0.99214   0.081006  
         H         H         0.80698   0.34703   -0.00398  0.150893  
         O         O         0.87018   0.40879   -0.00168  -0.336327           
         C         C         0.50013   0.55491   0.00290   0.066443  
         C         C         0.48133   0.57203   0.00456   -0.102408           
         C         C         0.53617   0.57227   0.99469   -0.137294           
         H         H         0.49439   0.59923   -0.00197  0.110862  
         H         H         0.54893   0.59933   0.98707   0.113997  
         C         C         0.20149   0.61245   0.99054   0.169942  
         C         C         0.23091   0.64372   0.98820   -0.228928           
         C         C         0.26217   0.64396   0.98949   0.094008  
         H         H         0.23043   0.66725   0.98376   0.148131  
         O         O         0.16836   0.60597   0.99400   -0.337053           
         B         B         0.42390   0.84972   0.99260   0.583519  
         B         B         0.55840   0.11198   0.01246   0.584025  
         C         C         0.44582   0.55423   0.00908   -0.230550           
         C         C         0.48270   0.51868   0.00682   0.004435  
         C         C         0.53782   0.46467   -0.00258  -0.233713           
         C         C         0.50110   0.50059   0.00360   0.002402  
         C         C         0.49915   0.94395   0.00614   0.065270  
         C         C         0.47986   0.90756   0.00152   -0.098253           
         C         C         0.53576   0.96257   0.00990   -0.133048           
         H         H         0.49308   0.89302   0.00238   0.110660  
         H         H         0.54871   0.94786   0.01190   0.108997  
         C         C         0.20199   0.58194   0.99415   0.172574  
         C         C         0.23206   0.58127   -0.00331  -0.223351           
         C         C         0.29407   0.61330   -0.00394  -0.080103           
         C         C         0.32108   0.61358   -0.00192  -0.081319           
         C         C         0.26271   0.61272   0.99387   0.092240  
         H         H         0.23262   0.55803   0.00367   0.149988  
         O         O         0.16918   0.55545   0.00015   -0.338563           
         C         C         0.48342   0.01914   0.01036   0.065683  
         C         C         0.50264   0.05530   0.01268   -0.099337           
         C         C         0.44692   0.00071   0.00868   -0.134460           
         H         H         0.48949   0.07001   0.01329   0.112299  
         H         H         0.43406   0.01569   0.00916   0.108973  
         C         C         0.83739   0.43376   -0.00375  0.171060  
         C         C         0.80776   0.43511   0.99259   -0.220461           
         C         C         0.74547   0.40336   0.98712   -0.069967           
         C         C         0.71825   0.40308   0.98496   -0.013700           
         C         C         0.77638   0.40348   0.99086   0.086196  
         H         H         0.80784   0.45893   0.98840   0.151761  
         O         O         0.87063   0.46016   0.99409   -0.335661           
         C         C         0.53718   0.01763   0.01185   0.067568  
         C         C         0.55526   0.05374   0.01343   -0.106087           
         C         C         0.55397   0.99785   0.01237   -0.138660           
         H         H         0.58295   0.06716   0.01400   0.114840  
         H         H         0.58173   0.01184   0.01480   0.109559  
         C         C         0.60030   0.43464   -0.00005  0.174188  
         C         C         0.63124   0.43583   -0.00379  -0.220219           
         C         C         0.66174   0.40348   0.98805   -0.066181           
         C         C         0.68875   0.40323   0.98476   -0.016822           
         C         C         0.63103   0.40391   0.99284   0.085729  
         H         H         0.65491   0.45970   0.99307   0.152437  
         O         O         0.59352   0.46140   0.00021   -0.337420           
         C         C         0.44524   0.94510   0.00212   0.068501  
         C         C         0.42701   0.90850   -0.00384  -0.103374           
         C         C         0.42862   0.96521   0.00414   -0.135942           
         H         H         0.39919   0.89465   0.99216   0.110682  
         H         H         0.40089   0.95150   0.00225   0.109428  
         C         C         0.38320   0.58358   -0.00187  0.169867  
         C         C         0.35212   0.58223   -0.00137  -0.221142           
         C         C         0.35221   0.61371   -0.00127  0.094393  
         H         H         0.32847   0.55840   0.00179   0.148952  
         O         O         0.39002   0.55700   0.00035   -0.338104           
         B         B         0.14862   0.57070   0.00066   0.589070  
         B         B         0.89063   0.44431   0.99472   0.591041  
         C         C         0.44390   0.88943   0.99573   -0.225229           
         C         C         0.48176   0.96307   0.00601   0.007376  
         C         C         0.53842   0.07284   0.01386   -0.227772           
         C         C         0.50075   -0.00010  0.00980   0.009275  
         C         C         0.05693   0.55374   0.00910   0.068302  
         C         C         0.09261   0.57070   0.01064   -0.102181           
         C         C         0.03865   0.57208   0.00834   -0.133701           
         H         H         0.10690   0.59871   0.01148   0.110519  
         H         H         0.05320   0.60006   0.00909   0.113674  
         C         C         0.41390   0.61485   -0.00088  0.170102  
         C         C         0.41505   0.64619   -0.00030  -0.230132           
         C         C         0.38316   0.67662   -0.00336  -0.089797           
         C         C         0.38237   0.70301   0.99254   -0.081037           
         C         C         0.38365   0.64568   -0.00129  0.094595  
         H         H         0.43891   0.67033   -0.00028  0.148728  
         O         O         0.44087   0.60885   0.00244   -0.336205           
         C         C         0.98270   0.46171   -0.00249  0.064394  
         C         C         0.94691   0.44462   0.99402   -0.103468           
         C         C         0.00099   0.44342   -0.00124  -0.134648           
         H         H         0.93255   0.41678   0.99466   0.111471  
         H         H         0.98641   0.41557   -0.00080  0.112177  
         C         C         0.56950   0.40329   -0.00067  0.169967  
         C         C         0.56815   0.37176   -0.00372  -0.224634           
         C         C         0.59976   0.34114   -0.00367  -0.067151           
         C         C         0.59997   0.31446   0.00261   -0.021351           
         C         C         0.59952   0.37198   0.99432   0.086832  
         H         H         0.54436   0.34758   -0.00362  0.152623  
         O         O         0.54269   0.40963   -0.00106  -0.336064           
         C         C         0.98407   0.51760   -0.00043  0.074706  
         C         C         0.94828   0.49937   -0.00400  -0.108324           
         C         C         0.00371   0.55465   0.00273   -0.137439           
         H         H         0.93483   0.51365   0.99428   0.110032  
         H         H         0.99007   0.56857   -0.00093  0.113113  
         C         C         0.57006   0.16596   0.01225   0.175853  
         C         C         0.56896   0.19603   0.01251   -0.214801           
         C         C         0.60054   0.25846   0.01260   -0.062901           
         C         C         0.60026   0.28531   0.00851   -0.022402           
         C         C         0.60049   0.22751   0.01520   0.082682  
         H         H         0.54514   0.19617   0.01121   0.153298  
         O         O         0.54325   0.13266   0.01200   -0.338739           
         C         C         0.05552   0.49762   0.00446   0.072190  
         C         C         0.09118   0.51553   0.00387   -0.107686           
         C         C         0.03588   0.46064   0.00232   -0.136125           
         H         H         0.10450   0.50090   0.00209   0.108339  
         H         H         0.04951   0.44661   0.00486   0.112979  
         C         C         0.41243   0.79573   0.99287   0.172068  
         C         C         0.41373   0.76594   0.99577   -0.217195           
         C         C         0.38219   0.73396   0.98867   0.093267  
         H         H         0.43793   0.76671   0.00222   0.148687  
         O         O         0.43933   0.82957   -0.00263  -0.341119           
         B         B         0.42584   0.57309   0.00421   0.587156  
         B         B         0.55778   0.44554   -0.00142  0.591207  
         C         C         0.10992   0.55180   0.00631   -0.232739           
         C         C         0.03796   0.51665   0.00488   0.001052  
         C         C         0.92949   0.46310   0.99342   -0.231949           
         C         C         0.00168   0.49874   0.00119   0.005446  
         C         C         0.44550   0.50246   0.51260   0.074007  
         C         C         0.42795   0.52079   0.51331   -0.113147           
         C         C         0.42843   0.46602   0.51535   -0.134521           
         H         H         0.40041   0.50695   0.51615   0.109326  
         H         H         0.40115   0.45291   0.52305   0.112221  
         C         C         0.37944   0.79534   0.48447   0.169331  
         C         C         0.34793   0.76469   0.47661   -0.213124           
         C         C         0.31702   0.70222   0.47963   -0.078974           
         C         C         0.29101   0.67530   0.48621   -0.088130           
         C         C         0.34799   0.73354   0.47929   0.089426  
         H         H         0.32385   0.76412   0.46790   0.148105  
         O         O         0.38636   0.82893   0.48406   -0.338078           
         C         C         0.53588   0.52002   0.49626   0.071644  
         C         C         0.55329   0.50143   0.49387   -0.110080           
         C         C         0.55301   0.55663   0.49504   -0.134545           
         H         H         0.58082   0.51525   0.49068   0.108999  
         H         H         0.58035   0.56994   0.48835   0.112603  
         C         C         0.60020   0.16638   0.51565   0.175493  
         C         C         0.63120   0.19686   0.51973   -0.213715           
         C         C         0.66124   0.25914   0.51794   -0.062261           
         C         C         0.68800   0.28592   0.51244   -0.022109           
         C         C         0.63061   0.22804   0.51927   0.082007  
         H         H         0.65539   0.19752   0.52364   0.152083  
         O         O         0.59390   0.13294   0.51520   -0.338527           
         C         C         0.48195   0.46544   0.50229   0.067033  
         C         C         0.50036   0.44775   0.49760   -0.102039           
         C         C         0.44585   0.44817   0.50953   -0.135472           
         H         H         0.48685   0.42010   0.50023   0.111655  
         H         H         0.43286   0.42075   0.51398   0.113644  
         C         C         0.83502   0.40489   0.49949   0.172591  
         C         C         0.80557   0.37338   0.49879   -0.226330           
         C         C         0.74355   0.34182   0.49809   -0.071496           
         C         C         0.71707   0.31509   0.50552   -0.015871           
         C         C         0.77406   0.37277   0.49474   0.084976  
         H         H         0.80610   0.34987   0.50292   0.151232  
         O         O         0.86835   0.41187   0.50066   -0.335819           
         C         C         0.49940   0.55715   0.50684   0.066309  
         C         C         0.48080   0.57461   0.50988   -0.099357           
         C         C         0.53559   0.57451   0.50098   -0.136505           
         H         H         0.49416   0.60221   0.50697   0.109746  
         H         H         0.54881   0.60206   0.49770   0.111564  
         C         C         0.19951   0.61426   0.49270   0.168256  
         C         C         0.22931   0.64507   0.48978   -0.229061           
         C         C         0.26016   0.64448   0.49072   0.092121  
         H         H         0.22940   0.66887   0.48527   0.147788  
         O         O         0.16660   0.60850   0.49525   -0.336867           
         B         B         0.42240   0.84988   0.49288   0.583303  
         B         B         0.55814   0.11200   0.51210   0.584991  
         C         C         0.44515   0.55661   0.51154   -0.230729           
         C         C         0.48160   0.52049   0.50684   0.002280  
         C         C         0.53592   0.46539   0.49389   -0.230959           
         C         C         0.49977   0.50207   0.50203   0.005307  
         C         C         0.49824   0.94377   0.50657   0.066665  
         C         C         0.47874   0.90742   0.50219   -0.098861           
         C         C         0.53485   0.96221   0.51073   -0.134603           
         H         H         0.49184   0.89275   0.50277   0.111198  
         H         H         0.54768   0.94741   0.51325   0.109421  
         C         C         0.19932   0.58352   0.49776   0.171105  
         C         C         0.22897   0.58199   0.49947   -0.222933           
         C         C         0.29102   0.61276   0.49649   -0.081967           
         C         C         0.31794   0.61283   0.49803   -0.079959           
         C         C         0.25999   0.61289   0.49522   0.092996  
         H         H         0.22892   0.55843   0.50644   0.149147  
         O         O         0.16631   0.55772   0.50515   -0.337337           
         C         C         0.48310   0.01921   0.50935   0.065728  
         C         C         0.50253   0.05538   0.51187   -0.098088           
         C         C         0.44653   0.00088   0.50647   -0.135431           
         H         H         0.48949   0.07008   0.51089   0.111396  
         H         H         0.43371   0.01584   0.50604   0.109800  
         C         C         0.83453   0.43552   0.49602   0.174185  
         C         C         0.80444   0.43597   0.49089   -0.223530           
         C         C         0.74207   0.40293   0.48463   -0.067035           
         C         C         0.71444   0.40179   0.48181   -0.015369           
         C         C         0.77347   0.40406   0.49003   0.086342  
         H         H         0.80388   0.45932   0.48514   0.152599  
         O         O         0.86758   0.46241   0.49429   -0.338503           
         C         C         0.53676   0.01750   0.51227   0.067261  
         C         C         0.55506   0.05368   0.51432   -0.102695           
         C         C         0.55331   0.99752   0.51348   -0.137175           
         H         H         0.58280   0.06705   0.51609   0.111324  
         H         H         0.58111   0.01128   0.51689   0.109399  
         C         C         0.59717   0.43377   0.49646   0.173209  
         C         C         0.62776   0.43422   0.49231   -0.219355           
         C         C         0.65752   0.40135   0.48575   -0.066103           
         C         C         0.68459   0.40123   0.48218   -0.016143           
         C         C         0.62702   0.40219   0.49068   0.085051  
         H         H         0.65157   0.45748   0.48636   0.152290  
         O         O         0.59092   0.46077   0.49503   -0.338220           
         C         C         0.44456   0.94533   0.50201   0.069494  
         C         C         0.42610   0.90879   0.49634   -0.105481           
         C         C         0.42806   0.96546   0.50248   -0.137887           
         H         H         0.39824   0.89509   0.49153   0.114277  
         H         H         0.40028   0.95181   0.49962   0.109681  
         C         C         0.38132   0.58439   0.49967   0.175042  
         C         C         0.34992   0.58238   0.50000   -0.225238           
         C         C         0.34929   0.61333   0.49805   0.097243  
         H         H         0.32665   0.55863   0.50614   0.150243  
         O         O         0.38894   0.55864   0.50528   -0.339271           
         B         B         0.14629   0.57345   0.50306   0.589975  
         B         B         0.88825   0.44744   0.49683   0.590713  
         C         C         0.44276   0.88951   0.49598   -0.226791           
         C         C         0.48107   0.96309   0.50599   0.005993  
         C         C         0.53835   0.07286   0.51386   -0.227881           
         C         C         0.50028   -0.00014  0.50935   0.008833  
         C         C         0.05440   0.55650   0.50321   0.067323  
         C         C         0.09014   0.57344   0.50566   -0.104163           
         C         C         0.03602   0.57453   0.49930   -0.138658           
         H         H         0.10437   0.60110   0.50323   0.110581  
         H         H         0.05040   0.60214   0.49664   0.113555  
         C         C         0.41159   0.61563   0.49777   0.167679  
         C         C         0.41203   0.64640   0.49602   -0.228332           
         C         C         0.37967   0.67609   0.49347   -0.088944           
         C         C         0.37954   0.70290   0.49070   -0.079860           
         C         C         0.38038   0.64534   0.49595   0.095008  
         H         H         0.43551   0.67043   0.49288   0.148537  
         O         O         0.43901   0.61033   0.50149   -0.335479           
         C         C         0.98044   0.46555   0.50147   0.068076  
         C         C         0.94475   0.44865   0.49963   -0.102682           
         C         C         0.99889   0.44773   0.50745   -0.136305           
         H         H         0.93048   0.42116   0.50358   0.111021  
         H         H         0.98451   0.42053   0.51368   0.115132  
         C         C         0.56615   0.40293   0.49756   0.172958  
         C         C         0.56426   0.37124   0.49604   -0.226998           
         C         C         0.59519   0.33964   0.49517   -0.071100           
         C         C         0.59599   0.31315   0.50056   -0.020755           
         C         C         0.59528   0.37071   0.49358   0.084592  
         H         H         0.54026   0.34753   0.49787   0.152575  
         O         O         0.53974   0.40986   0.49661   -0.336675           
         C         C         0.98158   0.52069   0.49641   0.071031  
         C         C         0.94585   0.50270   0.49524   -0.110234           
         C         C         0.00113   0.55729   0.49521   -0.135482           
         H         H         0.93238   0.51682   0.49142   0.109703  
         H         H         0.98745   0.57105   0.48966   0.111755  
         C         C         0.56902   0.16581   0.51229   0.171083  
         C         C         0.56737   0.19557   0.51220   -0.213439           
         C         C         0.59810   0.25799   0.51150   -0.063684           
         C         C         0.59702   0.28434   0.50632   -0.022016           
         C         C         0.59864   0.22741   0.51525   0.083011  
         H         H         0.54324   0.19509   0.51032   0.152415  
         O         O         0.54248   0.13212   0.51001   -0.337769           
         C         C         0.05315   0.50118   0.50709   0.072851  
         C         C         0.08882   0.51908   0.50799   -0.108592           
         C         C         0.03372   0.46479   0.51029   -0.134081           
         H         H         0.10214   0.50477   0.51107   0.109327  
         H         H         0.04754   0.45130   0.51807   0.111574  
         C         C         0.41043   0.79586   0.49358   0.171577  
         C         C         0.41142   0.76577   0.49475   -0.214380           
         C         C         0.37971   0.73405   0.48774   0.092808  
         H         H         0.43538   0.76599   0.49993   0.148488  
         O         O         0.43758   0.82962   0.49874   -0.340762           
         B         B         0.42474   0.57506   0.50691   0.587304  
         B         B         0.55530   0.44564   0.49456   0.591184  
         C         C         0.10754   0.55496   0.50683   -0.231402           
         C         C         0.03549   0.51980   0.50271   0.002202  
         C         C         0.92719   0.46685   0.49662   -0.233201           
         C         C         -0.00074  0.50206   0.50020   0.003337 

