
##########################################################################
#               Crystallographic Information Format file
#               Produced by PyCifRW module
#
#  This is a CIF file.  CIF has been adopted by the International
#  Union of Crystallography as the standard for data archiving and
#  transmission.
#
#  For information on this file format, follow the CIF links at
#  http://www.iucr.org
##########################################################################

data_image0

_cell_length_a                          47.9228
_cell_length_b                          47.7347
_cell_length_c                          8.02456
_cell_angle_alpha                       95.1045
_cell_angle_beta                        114.281
_cell_angle_gamma                       120.14
_symmetry_space_group_name_H-M          'P 1'
_space_group_name_Hall                  'P 1'
loop_
  _atom_site_type_symbol
  _atom_site_label
  _atom_site_fract_x
  _atom_site_fract_y
  _atom_site_fract_z
  _atom_site_charge
         C         C         0.45500   0.48767   0.60881   0.067458  
         C         C         0.43862   0.50513   0.61021   -0.102641           
         C         C         0.43860   0.45301   0.61041   -0.139180           
         H         H         0.41282   0.49207   0.61496   0.110949  
         H         H         0.41282   0.44024   0.61502   0.114661  
         C         C         0.39919   0.82559   0.61728   0.175430  
         C         C         0.36964   0.79691   0.61421   -0.226608           
         C         C         0.34105   0.73788   0.61316   -0.066887           
         C         C         0.31540   0.71205   0.61350   -0.020623           
         C         C         0.37033   0.76753   0.61463   0.082504  
         H         H         0.34656   0.79635   0.61218   0.152649  
         O         O         0.40467   0.85682   0.61351   -0.336543           
         C         C         0.50965   0.96525   0.62307   0.071366  
         C         C         0.49167   0.93114   0.62088   -0.112553           
         C         C         0.54436   0.98310   0.62446   -0.135795           
         H         H         0.50453   0.91774   0.62054   0.109734  
         H         H         0.55669   0.96932   0.62076   0.112196  
         C         C         0.17373   0.57086   0.61332   0.176903  
         C         C         0.20236   0.56949   0.62230   -0.212575           
         C         C         0.26182   0.59893   0.62681   -0.062069           
         C         C         0.28752   0.59917   0.62540   -0.021924           
         C         C         0.23231   0.59901   0.62268   0.081073  
         H         H         0.20250   0.54697   0.63028   0.151272  
         O         O         0.14191   0.54588   0.61235   -0.338318           
         C         C         0.03666   0.54486   0.62074   0.066324  
         C         C         0.07025   0.56076   0.61849   -0.098422           
         C         C         0.02025   0.56263   0.63136   -0.134902           
         H         H         0.08442   0.58753   0.62490   0.114223  
         H         H         0.03451   0.58930   0.63634   0.110193  
         C         C         0.42814   0.59921   0.61980   0.172570  
         C         C         0.42969   0.62879   0.61695   -0.222291           
         C         C         0.40035   0.65856   0.61378   -0.069592           
         C         C         0.40027   0.68429   0.61196   -0.014723           
         C         C         0.40022   0.62912   0.61702   0.083275  
         H         H         0.45206   0.65092   0.61115   0.151323  
         O         O         0.45263   0.59226   0.61531   -0.336088           
         C         C         0.54151   0.50566   0.61080   0.067165  
         C         C         0.55818   0.48843   0.61263   -0.099258           
         C         C         0.55780   0.54022   0.60778   -0.137659           
         H         H         0.58439   0.50170   0.61185   0.110136  
         H         H         0.58361   0.55300   0.60334   0.114983  
         C         C         0.60378   0.17329   0.61592   0.172214  
         C         C         0.63359   0.20161   0.61809   -0.225410           
         C         C         0.66258   0.26059   0.61397   -0.068782           
         C         C         0.68797   0.28695   0.61496   -0.022177           
         C         C         0.63311   0.23101   0.61221   0.083744  
         H         H         0.65681   0.20186   0.62467   0.152567  
         O         O         0.59821   0.14226   0.62633   -0.338040           
         C         C         0.49377   0.03523   0.62891   0.072289  
         C         C         0.51144   0.06913   0.62769   -0.111665           
         C         C         0.45916   0.01740   0.62867   -0.137258           
         H         H         0.49844   0.08248   0.62625   0.110061  
         H         H         0.44685   0.03120   0.63256   0.113069  
         C         C         0.82938   0.43101   0.62839   0.176062  
         C         C         0.80085   0.43190   0.62495   -0.213206           
         C         C         0.74118   0.40134   0.61655   -0.063241           
         C         C         0.71540   0.40108   0.61693   -0.021273           
         C         C         0.77076   0.40162   0.61912   0.082648  
         H         H         0.80086   0.45463   0.62511   0.152661  
         O         O         0.86119   0.45666   0.63170   -0.338636           
         C         C         0.96575   0.45806   0.60962   0.066942  
         C         C         0.93246   0.44229   0.61449   -0.102769           
         C         C         0.98205   0.44022   0.59836   -0.136555           
         H         H         0.91862   0.41574   0.61164   0.115238  
         H         H         0.96789   0.41363   0.59460   0.109610  
         C         C         0.57154   0.39656   0.60805   0.172548  
         C         C         0.57119   0.36755   0.61068   -0.223452           
         C         C         0.60242   0.33983   0.61491   -0.066872           
         C         C         0.60268   0.31418   0.61367   -0.015241           
         C         C         0.60162   0.36878   0.61382   0.085706  
         H         H         0.54899   0.34463   0.61287   0.153373  
         O         O         0.54588   0.40209   0.60869   -0.336360           
         C         C         0.48979   0.45350   0.61047   0.070727  
         C         C         0.50734   0.43718   0.61055   -0.108845           
         C         C         0.45530   0.43669   0.61153   -0.133251           
         H         H         0.49434   0.41086   0.61173   0.109982  
         H         H         0.44291   0.41061   0.61580   0.112132  
         C         C         0.82915   0.40145   0.62595   0.170989  
         C         C         0.80069   0.37162   0.62272   -0.213962           
         C         C         0.74127   0.34174   0.61656   -0.063449           
         C         C         0.71573   0.31555   0.61573   -0.019703           
         C         C         0.77076   0.37145   0.61911   0.080900  
         H         H         0.80069   0.34885   0.62203   0.153419  
         O         O         0.86055   0.40770   0.62559   -0.337637           
         C         C         0.96835   0.51142   0.62632   0.068700  
         C         C         0.93479   0.49443   0.62905   -0.104905           
         C         C         0.98749   0.54658   0.63343   -0.139029           
         H         H         0.92262   0.50828   0.63569   0.114386  
         H         H         0.97529   0.56033   0.64143   0.109931  
         C         C         0.57362   0.17285   0.60593   0.173703  
         C         C         0.57207   0.20081   0.60043   -0.218410           
         C         C         0.60263   0.26015   0.60628   -0.070824           
         C         C         0.60276   0.28604   0.61037   -0.013721           
         C         C         0.60244   0.23069   0.60551   0.087385  
         H         H         0.54909   0.20064   0.59682   0.153286  
         O         O         0.54827   0.14147   0.60766   -0.337826           
         C         C         0.54539   0.03481   0.63071   0.068524  
         C         C         0.56230   0.06891   0.63219   -0.102714           
         C         C         0.56159   0.01650   0.62894   -0.136053           
         H         H         0.58851   0.08188   0.63147   0.110258  
         H         H         0.58764   0.02966   0.62690   0.113441  
         C         C         0.60062   0.42643   0.60911   0.172861  
         C         C         0.63071   0.42873   0.61269   -0.225733           
         C         C         0.66135   0.40034   0.61739   -0.069651           
         C         C         0.68722   0.40077   0.61692   -0.017670           
         C         C         0.63150   0.39945   0.61519   0.083942  
         H         H         0.65302   0.45180   0.61210   0.152019  
         O         O         0.59387   0.45140   0.60954   -0.335789           
         C         C         0.50650   0.53965   0.60687   0.070052  
         C         C         0.48905   0.55602   0.60764   -0.106119           
         C         C         0.54096   0.55643   0.60548   -0.133771           
         H         H         0.50195   0.58226   0.60511   0.108983  
         H         H         0.55324   0.58243   0.60039   0.113779  
         C         C         0.17371   0.60014   0.60571   0.172484  
         C         C         0.20220   0.62931   0.60520   -0.216053           
         C         C         0.26175   0.65805   0.61396   -0.059194           
         C         C         0.28745   0.68385   0.61367   -0.023812           
         C         C         0.23218   0.62894   0.61406   0.080622  
         H         H         0.20231   0.65201   0.59987   0.153687  
         O         O         0.14217   0.59444   0.60193   -0.338541           
         C         C         0.03373   0.49130   0.60159   0.065763  
         C         C         0.06738   0.50833   0.59983   -0.103108           
         C         C         0.01457   0.45612   0.59424   -0.134654           
         H         H         0.07931   0.49435   0.59109   0.111741  
         H         H         0.02668   0.44234   0.58533   0.109928  
         C         C         0.42922   0.82634   0.62280   0.171197  
         C         C         0.43088   0.79832   0.62229   -0.219316           
         C         C         0.40071   0.73853   0.61425   -0.064583           
         C         C         0.40037   0.71251   0.61164   -0.018445           
         C         C         0.40081   0.76804   0.61697   0.084951  
         H         H         0.45385   0.79885   0.62299   0.152586  
         O         O         0.45447   0.85823   0.62475   -0.337446           
         C         C         0.45800   0.96556   0.62125   0.068346  
         C         C         0.44088   0.93128   0.61704   -0.101472           
         C         C         0.44189   0.98396   0.62375   -0.133393           
         H         H         0.41461   0.91821   0.61702   0.110500  
         H         H         0.41577   0.97082   0.62513   0.112547  
         C         C         0.39882   0.57016   0.62212   0.170392  
         C         C         0.36967   0.56936   0.62211   -0.225060           
         C         C         0.34106   0.59956   0.62041   -0.069021           
         C         C         0.31550   0.59940   0.62327   -0.019475           
         C         C         0.37013   0.59930   0.61960   0.084643  
         H         H         0.34710   0.54703   0.62546   0.150285  
         O         O         0.40433   0.54431   0.62037   -0.334997           
         B         B         0.43896   0.87680   0.61820   0.589269  
         B         B         0.12272   0.56080   0.60641   0.583657  
         B         B         0.43758   0.55822   0.61509   0.590921  
         B         B         0.56384   0.12280   0.62170   0.590784  
         B         B         0.88014   0.44188   0.62854   0.585001  
         B         B         0.56008   0.43612   0.61047   0.591903  
         C         C         0.45533   0.53918   0.60970   -0.232702           
         C         C         0.48947   0.50509   0.60835   0.003367  
         C         C         0.45741   0.91388   0.61740   -0.228603           
         C         C         0.49286   0.98294   0.62474   0.004812  
         C         C         0.08598   0.54296   0.60883   -0.228913           
         C         C         0.01810   0.50972   0.61287   0.005828  
         C         C         0.54140   0.45431   0.61209   -0.237654           
         C         C         0.50684   0.48809   0.60941   0.004127  
         C         C         0.54555   0.08616   0.62930   -0.228030           
         C         C         0.51063   0.01757   0.62812   0.002976  
         C         C         0.91663   0.46002   0.62345   -0.227630           
         C         C         0.98411   0.49309   0.61587   0.010187  
         C         C         0.45471   0.49040   0.10496   0.066057  
         C         C         0.43808   0.50765   0.10442   -0.099427           
         C         C         0.43836   0.45575   0.10654   -0.137000           
         H         H         0.41179   0.49424   0.10432   0.109519  
         H         H         0.41224   0.44269   0.10795   0.115345  
         C         C         0.39803   0.82657   0.11957   0.170696  
         C         C         0.36798   0.79813   0.11477   -0.222995           
         C         C         0.33823   0.73876   0.11204   -0.067056           
         C         C         0.31264   0.71265   0.11147   -0.019063           
         C         C         0.36791   0.76838   0.11517   0.081853  
         H         H         0.34507   0.79814   0.11080   0.151774  
         O         O         0.40407   0.85799   0.11653   -0.336458           
         C         C         0.50850   0.96631   0.12344   0.070950  
         C         C         0.49087   0.93222   0.12167   -0.108825           
         C         C         0.54335   0.98456   0.12625   -0.133481           
         H         H         0.50406   0.91912   0.12193   0.109050  
         H         H         0.55598   0.97103   0.12360   0.112850  
         C         C         0.17179   0.57082   0.11517   0.176397  
         C         C         0.20067   0.56990   0.12451   -0.213089           
         C         C         0.26010   0.59973   0.12967   -0.063289           
         C         C         0.28576   0.59977   0.12893   -0.019446           
         C         C         0.23042   0.59960   0.12462   0.082898  
         H         H         0.20113   0.54756   0.13315   0.151657  
         O         O         0.14015   0.54560   0.11471   -0.338897           
         C         C         0.03419   0.54326   0.12161   0.069064  
         C         C         0.06783   0.55940   0.11990   -0.099055           
         C         C         0.01749   0.56080   0.13065   -0.134983           
         H         H         0.08188   0.58618   0.12625   0.111593  
         H         H         0.03150   0.58738   0.13391   0.110235  
         C         C         0.42712   0.60125   0.12300   0.171670  
         C         C         0.42819   0.63063   0.12162   -0.222231           
         C         C         0.39794   0.65936   0.11884   -0.066743           
         C         C         0.39750   0.68488   0.11734   -0.015252           
         C         C         0.39835   0.63023   0.12129   0.084944  
         H         H         0.45038   0.65309   0.11664   0.153643  
         O         O         0.45197   0.59488   0.11814   -0.337180           
         C         C         0.54169   0.50891   0.11116   0.067682  
         C         C         0.55844   0.49174   0.11268   -0.104459           
         C         C         0.55802   0.54354   0.10940   -0.138237           
         H         H         0.58444   0.50492   0.10985   0.112242  
         H         H         0.58386   0.55639   0.10535   0.115384  
         C         C         0.60040   0.17391   0.11298   0.173332  
         C         C         0.63008   0.20220   0.11456   -0.224995           
         C         C         0.65920   0.26117   0.11264   -0.069869           
         C         C         0.68466   0.28711   0.11163   -0.017659           
         C         C         0.62973   0.23169   0.11137   0.085684  
         H         H         0.65306   0.20233   0.11840   0.152026  
         O         O         0.59485   0.14281   0.12079   -0.334986           
         C         C         0.49160   0.03558   0.12767   0.073837  
         C         C         0.50890   0.06945   0.12591   -0.113723           
         C         C         0.45696   0.01745   0.12688   -0.133401           
         H         H         0.49561   0.08251   0.12362   0.109831  
         H         H         0.44440   0.03101   0.13020   0.111627  
         C         C         0.82750   0.43007   0.12868   0.176576  
         C         C         0.79931   0.43163   0.12492   -0.214960           
         C         C         0.73962   0.40190   0.11681   -0.063443           
         C         C         0.71402   0.40202   0.11722   -0.022515           
         C         C         0.76887   0.40162   0.11863   0.083652  
         H         H         0.79983   0.45465   0.12481   0.152483  
         O         O         0.85942   0.45537   0.13184   -0.338414           
         C         C         0.96355   0.45623   0.10970   0.064773  
         C         C         0.93019   0.44032   0.11415   -0.098664           
         C         C         0.97993   0.43851   0.09748   -0.133567           
         H         H         0.91643   0.41372   0.11060   0.114064  
         H         H         0.96576   0.41181   0.09216   0.109139  
         C         C         0.57134   0.39935   0.11230   0.173140  
         C         C         0.57059   0.37019   0.11630   -0.223250           
         C         C         0.60082   0.34150   0.11884   -0.067749           
         C         C         0.60081   0.31571   0.11770   -0.016608           
         C         C         0.60050   0.37069   0.11692   0.085886  
         H         H         0.54850   0.34772   0.12181   0.152624  
         O         O         0.54628   0.40558   0.11540   -0.336620           
         C         C         0.49021   0.45679   0.11235   0.070187  
         C         C         0.50808   0.44073   0.11480   -0.107483           
         C         C         0.45554   0.43978   0.11165   -0.131924           
         H         H         0.49543   0.41459   0.11846   0.110152  
         H         H         0.44339   0.41384   0.11771   0.111174  
         C         C         0.82672   0.40021   0.12576   0.172823  
         C         C         0.79778   0.37062   0.12090   -0.214282           
         C         C         0.73831   0.34156   0.11337   -0.061121           
         C         C         0.71259   0.31547   0.11206   -0.024155           
         C         C         0.76818   0.37109   0.11731   0.080326  
         H         H         0.79708   0.34750   0.11807   0.152656  
         O         O         0.85794   0.40593   0.12540   -0.338534           
         C         C         0.96589   0.50948   0.12638   0.067428  
         C         C         0.93229   0.49233   0.12835   -0.105100           
         C         C         0.98472   0.54458   0.13244   -0.136748           
         H         H         0.91990   0.50598   0.13403   0.115499  
         H         H         0.97224   0.55810   0.13895   0.109748  
         C         C         0.57048   0.17357   0.10627   0.171916  
         C         C         0.56907   0.20168   0.10372   -0.218352           
         C         C         0.59986   0.26122   0.11043   -0.064547           
         C         C         0.60051   0.28738   0.11477   -0.018351           
         C         C         0.59936   0.23155   0.10794   0.083042  
         H         H         0.54635   0.20172   0.10264   0.152796  
         O         O         0.54525   0.14206   0.10785   -0.337873           
         C         C         0.54372   0.03595   0.13142   0.067663  
         C         C         0.56021   0.06999   0.13219   -0.100457           
         C         C         0.56036   0.01800   0.13125   -0.137559           
         H         H         0.58646   0.08324   0.13194   0.112049  
         H         H         0.58665   0.03147   0.13156   0.114340  
         C         C         0.60025   0.42867   0.10904   0.169408  
         C         C         0.62990   0.43032   0.11047   -0.223957           
         C         C         0.65996   0.40135   0.11688   -0.069998           
         C         C         0.68589   0.40181   0.11713   -0.018376           
         C         C         0.63034   0.40088   0.11498   0.083002  
         H         H         0.65219   0.45296   0.10719   0.150244  
         O         O         0.59385   0.45391   0.10839   -0.336554           
         C         C         0.50674   0.54286   0.10915   0.069869  
         C         C         0.48927   0.55919   0.11085   -0.108556           
         C         C         0.54134   0.55984   0.10912   -0.133110           
         H         H         0.50243   0.58565   0.11193   0.109849  
         H         H         0.55386   0.58602   0.10649   0.112706  
         C         C         0.17137   0.59988   0.10723   0.171059  
         C         C         0.19960   0.62918   0.10561   -0.216727           
         C         C         0.25920   0.65854   0.11328   -0.061982           
         C         C         0.28471   0.68436   0.11168   -0.024407           
         C         C         0.22983   0.62930   0.11444   0.082731  
         H         H         0.19927   0.65165   0.09925   0.153213  
         O         O         0.13969   0.59374   0.10380   -0.339079           
         C         C         0.03171   0.48991   0.10292   0.067585  
         C         C         0.06544   0.50716   0.10178   -0.101527           
         C         C         0.01255   0.45463   0.09409   -0.137041           
         H         H         0.07758   0.49335   0.09363   0.111455  
         H         H         0.02468   0.44091   0.08421   0.109789  
         C         C         0.42781   0.82685   0.12491   0.174289  
         C         C         0.42871   0.79842   0.12382   -0.219425           
         C         C         0.39784   0.73893   0.11727   -0.067432           
         C         C         0.39745   0.71297   0.11679   -0.015447           
         C         C         0.39831   0.76855   0.11888   0.086315  
         H         H         0.45117   0.79818   0.12280   0.153242  
         O         O         0.45333   0.85859   0.12642   -0.337022           
         C         C         0.45650   0.96601   0.12087   0.066535  
         C         C         0.43976   0.93176   0.11732   -0.100105           
         C         C         0.44003   0.98407   0.12289   -0.135833           
         H         H         0.41347   0.91843   0.11711   0.110831  
         H         H         0.41391   0.97074   0.12434   0.111075  
         C         C         0.39788   0.57176   0.12328   0.172902  
         C         C         0.36836   0.57028   0.12276   -0.225250           
         C         C         0.33912   0.59990   0.12316   -0.067259           
         C         C         0.31365   0.59985   0.12648   -0.020575           
         C         C         0.36837   0.60001   0.12203   0.082833  
         H         H         0.34584   0.54754   0.12412   0.151569  
         O         O         0.40376   0.54619   0.11970   -0.336125           
         B         B         0.43829   0.87762   0.12039   0.590868  
         B         B         0.12057   0.56008   0.10839   0.586689  
         B         B         0.43713   0.56070   0.11505   0.593691  
         B         B         0.56079   0.12340   0.11899   0.585391  
         B         B         0.87787   0.44007   0.12825   0.583695  
         B         B         0.56049   0.43939   0.11313   0.592162  
         C         C         0.45515   0.54201   0.10885   -0.236993           
         C         C         0.48955   0.50815   0.10814   0.003839  
         C         C         0.45665   0.91468   0.11861   -0.230504           
         C         C         0.49137   0.98368   0.12451   0.003718  
         C         C         0.08378   0.54180   0.11075   -0.227078           
         C         C         0.01587   0.50813   0.11398   0.007590  
         C         C         0.54197   0.45779   0.11452   -0.232608           
         C         C         0.50706   0.49129   0.11002   0.004983  
         C         C         0.54298   0.08683   0.12756   -0.228643           
         C         C         0.50885   0.01831   0.12781   0.003697  
         C         C         0.91424   0.45793   0.12277   -0.230606           
         C         C         0.98183   0.49131   0.11655   0.007225 

