
##########################################################################
#               Crystallographic Information Format file
#               Produced by PyCifRW module
#
#  This is a CIF file.  CIF has been adopted by the International
#  Union of Crystallography as the standard for data archiving and
#  transmission.
#
#  For information on this file format, follow the CIF links at
#  http://www.iucr.org
##########################################################################

data_image0

_cell_length_a                          37.4324
_cell_length_b                          37.6693
_cell_length_c                          8.40204
_cell_angle_alpha                       91.3964
_cell_angle_beta                        118.517
_cell_angle_gamma                       120.46
_symmetry_space_group_name_H-M          'P 1'
_space_group_name_Hall                  'P 1'
loop_
  _atom_site_type_symbol
  _atom_site_label
  _atom_site_fract_x
  _atom_site_fract_y
  _atom_site_fract_z
  _atom_site_charge
         C         C         0.31314   0.14103   0.01577   -0.138826           
         C         C         0.35661   0.16085   0.01797   -0.151028           
         C         C         0.38123   0.20302   0.00711   0.021494  
         C         C         0.35815   0.22426   0.99296   0.095765  
         C         C         0.31308   0.20299   0.98643   0.097837  
         C         C         0.28895   0.16095   -0.00018  -0.017086           
         C         C         0.24307   0.13917   -0.00295  0.077902  
         C         C         0.42678   0.22200   0.00885   0.072753  
         C         C         0.43879   0.19467   0.96665   -0.125935           
         C         C         0.48204   0.21181   0.97149   -0.153355           
         C         C         0.51511   0.25714   0.01433   0.210192  
         C         C         0.50351   0.28478   0.05683   -0.168532           
         C         C         0.46037   0.26757   0.05429   -0.105467           
         C         C         0.22665   0.16236   0.03815   -0.143101           
         C         C         0.18162   0.14079   0.02358   -0.152290           
         C         C         0.15165   0.09501   0.97701   0.208781  
         C         C         0.16814   0.07145   0.93996   -0.170801           
         C         C         0.21242   0.09305   0.94887   -0.116444           
         N         N         0.10746   0.07655   0.96964   -0.291723           
         N         N         0.55745   0.27049   0.01475   -0.293870           
         C         C         0.08634   0.03870   0.98782   0.076935  
         C         C         0.04014   0.01836   0.98028   0.065308  
         C         C         0.58376   0.30832   0.00535   0.081472  
         C         C         0.62799   0.32184   0.00652   0.065685  
         N         N         0.37167   0.26504   0.97363   -0.343060           
         C         C         0.33658   0.26835   0.95442   0.136243  
         N         N         0.30031   0.23214   0.96044   -0.285906           
         C         C         0.01944   0.04121   0.97461   -0.130909           
         C         C         0.64166   0.29309   0.00969   -0.129134           
         H         H         0.29839   0.10927   0.03413   0.104245  
         H         H         0.37325   0.14331   0.03689   0.105926  
         H         H         0.41337   0.15930   0.92642   0.096873  
         H         H         0.49114   0.19069   0.93823   0.113900  
         H         H         0.52890   0.32014   0.09524   0.107240  
         H         H         0.45207   0.28926   0.08850   0.109643  
         H         H         0.25063   0.19808   0.09258   0.088397  
         H         H         0.16931   0.15901   0.05532   0.111297  
         H         H         0.14527   0.03580   0.89841   0.105305  
         H         H         0.22307   0.07370   0.91283   0.099541  
         H         H         0.10233   0.02002   0.01468   0.064268  
         H         H         0.57413   0.33175   0.99128   0.065083  
         H         H         0.33545   0.29631   0.93795   0.086775  
         H         H         0.26769   0.22568   0.93218   0.280879  
         H         H         0.03845   0.07458   0.97359   0.110693  
         H         H         0.61853   0.26079   0.01269   0.112727  
         C         C         0.86493   0.17098   0.03532   -0.136611           
         C         C         0.84503   0.19425   0.02755   -0.148360           
         C         C         0.79857   0.17587   0.00382   0.026674  
         C         C         0.77359   0.13134   0.99307   0.099713  
         C         C         0.79485   0.10827   0.00376   0.091232  
         C         C         0.84064   0.12657   0.02120   -0.028212           
         C         C         0.86117   0.10242   0.01541   0.065256  
         C         C         0.77958   0.20223   -0.00342  0.066511  
         C         C         0.80265   0.24398   0.97908   -0.132123           
         C         C         0.78604   0.26961   0.97875   -0.157630           
         C         C         0.74544   0.25507   0.99467   0.199229  
         C         C         0.72176   0.21320   0.00977   -0.168651           
         C         C         0.73846   0.18759   0.01046   -0.106477           
         C         C         0.84897   0.06414   0.06389   -0.160008           
         C         C         0.86756   0.04114   0.04911   -0.157093           
         C         C         0.90084   0.05605   0.99174   0.192626  
         C         C         0.91382   0.09461   0.94515   -0.171832           
         C         C         0.89397   0.11664   0.95457   -0.130566           
         N         N         0.91796   0.03088   0.98414   -0.298297           
         N         N         0.73271   0.28433   0.99346   -0.304764           
         C         C         0.95711   0.04706   0.97925   0.081414  
         C         C         0.97612   0.02173   0.97427   0.061548  
         C         C         0.69652   0.27504   0.00964   0.082470  
         C         C         0.68351   0.30569   0.00760   0.062443  
         N         N         0.72740   0.10348   0.96833   -0.335737           
         C         C         0.72062   0.06556   0.96422   0.146293  
         N         N         0.75967   0.06620   0.98306   -0.296862           
         C         C         0.95297   0.97868   0.97851   -0.145418           
         C         C         0.71202   0.34769   0.00114   -0.146646           
         H         H         0.90124   0.18827   0.05503   0.106637  
         H         H         0.86713   0.22848   0.04142   0.107689  
         H         H         0.83340   0.25650   0.96181   0.100746  
         H         H         0.80380   0.30161   0.96426   0.117295  
         H         H         0.69055   0.20059   0.02451   0.109065  
         H         H         0.71988   0.15558   0.02323   0.108782  
         H         H         0.82718   0.05327   0.12573   0.085231  
         H         H         0.85797   0.01182   0.08805   0.116903  
         H         H         0.93790   0.10648   0.89305   0.100631  
         H         H         0.90267   0.14478   0.90725   0.103506  
         H         H         0.97924   0.08099   0.98463   0.069426  
         H         H         0.67347   0.24415   0.02479   0.070130  
         H         H         0.68859   0.03645   0.94964   0.094734  
         H         H         0.76316   0.04123   0.98860   0.278765  
         H         H         0.92000   0.96445   0.98304   0.111047  
         H         H         0.74402   0.35677   -0.00380  0.110265  
         C         C         0.84035   0.69344   0.04115   -0.142813           
         C         C         0.81581   0.64987   0.03206   -0.153331           
         C         C         0.82889   0.62244   0.00247   0.025358  
         C         C         0.87065   0.64332   0.98819   0.084877  
         C         C         0.89451   0.68763   0.99338   0.084838  
         C         C         0.88064   0.71465   0.01977   -0.038040           
         C         C         0.90325   0.75981   0.01821   0.075397  
         C         C         0.80085   0.57656   0.99186   0.070211  
         C         C         0.75278   0.55563   0.95670   -0.127526           
         C         C         0.72711   0.51352   0.96020   -0.154911           
         C         C         0.74785   0.48985   0.99544   0.213149  
         C         C         0.79550   0.51026   0.02753   -0.165363           
         C         C         0.82120   0.55244   0.02453   -0.096698           
         C         C         0.95090   0.78639   0.04854   -0.148118           
         C         C         0.96980   0.82816   0.03636   -0.145258           
         C         C         0.94301   0.84630   0.00002   0.202271  
         C         C         0.89570   0.82033   0.97260   -0.165702           
         C         C         0.87646   0.77831   0.98018   -0.120802           
         N         N         0.96566   0.88857   0.99091   -0.295072           
         N         N         0.71921   0.44807   -0.00007  -0.291523           
         C         C         0.94948   0.91161   0.99494   0.073164  
         C         C         0.97302   0.95556   0.98367   0.052315  
         C         C         0.72847   0.41972   0.98903   0.074211  
         C         C         0.69898   0.37660   -0.00149  0.056340  
         N         N         0.89298   0.62583   0.95885   -0.347717           
         C         C         0.92732   0.65705   0.94016   0.161082  
         N         N         0.93110   0.69543   0.96416   -0.305519           
         C         C         0.01684   0.97578   0.98508   -0.153277           
         C         C         0.65669   0.36338   0.00121   -0.150464           
         H         H         0.82876   0.71229   0.07301   0.102229  
         H         H         0.78663   0.63726   0.05856   0.108705  
         H         H         0.73499   0.57242   0.92477   0.099902  
         H         H         0.69040   0.49776   0.93589   0.114652  
         H         H         0.81321   0.49336   0.05975   0.108203  
         H         H         0.85788   0.56767   0.04969   0.106329  
         H         H         0.97439   0.77498   0.08689   0.094537  
         H         H         0.00605   0.84797   0.05559   0.114468  
         H         H         0.87332   0.83275   0.94141   0.108377  
         H         H         0.83927   0.75884   0.95286   0.103616  
         H         H         0.91813   0.90023   0.00984   0.067530  
         H         H         0.75788   0.42584   0.96957   0.067992  
         H         H         0.95055   0.65403   0.90724   0.099296  
         H         H         0.94624   0.71911   0.91399   0.282719  
         H         H         0.03208   0.95739   0.99014   0.109957  
         H         H         0.64709   0.38632   -0.00097  0.111166  
         C         C         0.30768   0.14372   0.50279   -0.132187           
         C         C         0.35121   0.16274   0.50652   -0.149016           
         C         C         0.37840   0.20571   0.50703   0.026648  
         C         C         0.35776   0.22862   0.50579   0.097419  
         C         C         0.31351   0.20883   0.50527   0.101372  
         C         C         0.28603   0.16540   0.50205   -0.019463           
         C         C         0.23971   0.14307   0.49734   0.084275  
         C         C         0.42404   0.22381   0.50978   0.067558  
         C         C         0.43570   0.19582   0.47117   -0.120245           
         C         C         0.47887   0.21193   0.47644   -0.158832           
         C         C         0.51253   0.25698   0.51689   0.214440  
         C         C         0.50157   0.28538   0.55734   -0.172032           
         C         C         0.45848   0.26920   0.55401   -0.104099           
         C         C         0.21284   0.16072   0.47553   -0.147225           
         C         C         0.16872   0.13804   0.46845   -0.154012           
         C         C         0.14784   0.09571   0.47923   0.202309  
         C         C         0.17414   0.07750   0.50068   -0.167222           
         C         C         0.21860   0.10065   0.51180   -0.120134           
         N         N         0.10360   0.07604   0.47212   -0.298099           
         N         N         0.55481   0.26929   0.51824   -0.294593           
         C         C         0.07979   0.03596   0.46694   0.069581  
         C         C         0.03507   0.01580   0.46966   0.067114  
         C         C         0.58109   0.30646   0.50436   0.083536  
         C         C         0.62546   0.31972   0.50668   0.066084  
         N         N         0.37531   0.27131   0.50648   -0.344922           
         C         C         0.34436   0.27781   0.51024   0.144266  
         N         N         0.30572   0.24124   0.50428   -0.296003           
         C         C         0.01431   0.03842   0.46679   -0.125678           
         C         C         0.64011   0.29153   0.51520   -0.126914           
         H         H         0.28994   0.11020   0.50129   0.100665  
         H         H         0.36517   0.14326   0.51350   0.102557  
         H         H         0.41022   0.16063   0.43401   0.098755  
         H         H         0.48746   0.19013   0.44573   0.114567  
         H         H         0.52752   0.32064   0.59536   0.107645  
         H         H         0.45083   0.29160   0.58686   0.109680  
         H         H         0.22482   0.19214   0.45552   0.081465  
         H         H         0.14893   0.15250   0.45273   0.111436  
         H         H         0.16041   0.04524   0.51404   0.104930  
         H         H         0.23806   0.08561   0.53526   0.105213  
         H         H         0.09163   0.01475   0.46295   0.064920  
         H         H         0.57140   0.32986   0.48572   0.064261  
         H         H         0.34737   0.30805   0.51552   0.089041  
         H         H         0.28311   0.24146   0.53726   0.272968  
         H         H         0.03188   0.07115   0.45823   0.111270  
         H         H         0.61784   0.25953   0.52253   0.112850  
         C         C         0.85563   0.16658   0.47555   -0.138908           
         C         C         0.83610   0.18999   0.47168   -0.150228           
         C         C         0.79510   0.17450   0.48647   0.022619  
         C         C         0.77413   0.13222   0.50256   0.096145  
         C         C         0.79523   0.10919   0.51036   0.090230  
         C         C         0.83620   0.12497   0.49492   -0.034152           
         C         C         0.85709   0.10084   0.49500   0.075065  
         C         C         0.77707   0.20131   0.48742   0.064995  
         C         C         0.80574   0.24610   0.50896   -0.127562           
         C         C         0.78886   0.27161   0.50580   -0.156811           
         C         C         0.74283   0.25409   0.48446   0.200544  
         C         C         0.71376   0.20935   0.46159   -0.170696           
         C         C         0.73061   0.18376   0.46390   -0.103932           
         C         C         0.82878   0.05461   0.44210   -0.152801           
         C         C         0.84982   0.03247   0.45067   -0.151328           
         C         C         0.89969   0.05516   0.50446   0.197925  
         C         C         0.92822   0.10132   0.55572   -0.169229           
         C         C         0.90742   0.12336   0.55199   -0.116538           
         N         N         0.91720   0.03005   0.50360   -0.302638           
         N         N         0.72948   0.28280   0.48353   -0.300470           
         C         C         0.95239   0.04394   0.47513   0.084290  
         C         C         0.97257   0.01937   0.47676   0.058357  
         C         C         0.69640   0.27465   0.51802   0.084187  
         C         C         0.68185   0.30431   0.51171   0.060694  
         N         N         0.73368   0.10747   0.51833   -0.337285           
         C         C         0.73091   0.07190   0.53922   0.157148  
         N         N         0.76657   0.07063   0.53381   -0.302390           
         C         C         0.95124   0.97717   0.49074   -0.145741           
         C         C         0.70951   0.34592   0.50065   -0.140999           
         H         H         0.88547   0.18024   0.45218   0.102464  
         H         H         0.85251   0.22099   0.44837   0.107658  
         H         H         0.84166   0.26128   0.52680   0.102986  
         H         H         0.81085   0.30585   0.51915   0.117949  
         H         H         0.67750   0.19444   0.44095   0.110936  
         H         H         0.70803   0.14955   0.44902   0.112312  
         H         H         0.78927   0.03548   0.38917   0.093376  
         H         H         0.82782   0.99691   0.41185   0.118938  
         H         H         0.96732   0.11998   0.60242   0.111463  
         H         H         0.93090   0.15907   0.59753   0.108952  
         H         H         0.96855   0.07455   0.44538   0.069889  
         H         H         0.67806   0.24584   0.55492   0.072048  
         H         H         0.70389   0.04567   0.55844   0.090068  
         H         H         0.77725   0.05099   0.58157   0.284560  
         H         H         0.91941   0.96322   0.50248   0.110442  
         H         H         0.74152   0.35509   0.49562   0.109943  
         C         C         0.83646   0.69158   0.53704   -0.145169           
         C         C         0.81257   0.64817   0.53084   -0.153949           
         C         C         0.82611   0.62096   0.50325   0.023830  
         C         C         0.86769   0.64185   0.48783   0.087475  
         C         C         0.89100   0.68599   0.49113   0.083902  
         C         C         0.87669   0.71267   0.51558   -0.036002           
         C         C         0.89945   0.75779   0.51372   0.072828  
         C         C         0.79822   0.57504   0.49299   0.071747  
         C         C         0.75001   0.55385   0.45667   -0.129099           
         C         C         0.72413   0.51150   0.45754   -0.153796           
         C         C         0.74476   0.48777   0.49129   0.209053  
         C         C         0.79255   0.50839   0.52447   -0.164416           
         C         C         0.81852   0.55088   0.52444   -0.096976           
         C         C         0.94929   0.78562   0.56534   -0.147220           
         C         C         0.96928   0.82777   0.55723   -0.147299           
         C         C         0.94097   0.84473   0.50252   0.202908  
         C         C         0.89111   0.81721   0.45065   -0.168752           
         C         C         0.87100   0.77486   0.45539   -0.123127           
         N         N         0.96381   0.88706   0.49454   -0.289466           
         N         N         0.71582   0.44578   0.49372   -0.291003           
         C         C         0.94893   0.91063   0.50847   0.074474  
         C         C         0.97106   0.95411   0.49141   0.052990  
         C         C         0.72545   0.41759   0.48550   0.075140  
         C         C         0.69596   0.37452   0.49546   0.054203  
         N         N         0.89033   0.62469   0.45859   -0.348168           
         C         C         0.92420   0.65595   0.43792   0.160638  
         N         N         0.92761   0.69419   0.46126   -0.309410           
         C         C         0.01292   0.97362   0.47974   -0.152610           
         C         C         0.65356   0.36100   0.49756   -0.147366           
         H         H         0.82458   0.71042   0.56650   0.104650  
         H         H         0.78348   0.63555   0.55780   0.107629  
         H         H         0.73221   0.57062   0.42581   0.099660  
         H         H         0.68728   0.49553   0.43209   0.113464  
         H         H         0.81013   0.49140   0.55485   0.108425  
         H         H         0.85531   0.56622   0.55067   0.107311  
         H         H         0.97331   0.77466   0.61685   0.096499  
         H         H         0.00745   0.84876   0.59438   0.116080  
         H         H         0.86752   0.82866   0.39997   0.108140  
         H         H         0.83192   0.75390   0.40863   0.104984  
         H         H         0.91987   0.89986   0.53688   0.068760  
         H         H         0.75542   0.42384   0.46955   0.067721  
         H         H         0.94734   0.65303   0.40399   0.099308  
         H         H         0.94178   0.71758   0.40784   0.283251  
         H         H         0.02772   0.95506   0.48025   0.110397  
         H         H         0.64339   0.38360   0.49240   0.110308 

