
##########################################################################
#               Crystallographic Information Format file
#               Produced by PyCifRW module
#
#  This is a CIF file.  CIF has been adopted by the International
#  Union of Crystallography as the standard for data archiving and
#  transmission.
#
#  For information on this file format, follow the CIF links at
#  http://www.iucr.org
##########################################################################

data_image0

_cell_length_a                          37.1697
_cell_length_b                          37.5879
_cell_length_c                          8.05465
_cell_angle_alpha                       91.2724
_cell_angle_beta                        69.8623
_cell_angle_gamma                       120.771
_symmetry_space_group_name_H-M          'P 1'
_space_group_name_Hall                  'P 1'
loop_
  _atom_site_type_symbol
  _atom_site_label
  _atom_site_fract_x
  _atom_site_fract_y
  _atom_site_fract_z
  _atom_site_charge
         C         C         0.31578   0.12252   0.87208   -0.155330           
         C         C         0.36015   0.14580   0.86563   -0.150491           
         C         C         0.37750   0.18432   0.92481   -0.021576           
         C         C         0.34579   0.19604   -0.00201  0.093863  
         C         C         0.30012   0.17260   0.00943   0.104323  
         C         C         0.28394   0.13448   0.94097   0.014251  
         C         C         0.23841   0.10879   0.93557   0.063936  
         C         C         0.42408   0.20965   0.91780   0.066188  
         C         C         0.20878   0.12347   0.97324   -0.094232           
         C         C         0.16704   0.10042   0.95686   -0.180975           
         C         C         0.15311   0.06131   0.90254   0.218141  
         C         C         0.18111   0.04521   0.87290   -0.179560           
         C         C         0.22280   0.06856   0.88847   -0.129628           
         C         C         0.44516   0.19040   0.95523   -0.119222           
         C         C         0.48830   0.21399   0.95885   -0.183331           
         C         C         0.51216   0.25828   0.92388   0.210852  
         C         C         0.49244   0.27804   0.87903   -0.180087           
         C         C         0.44922   0.25407   0.87658   -0.129971           
         N         N         0.34980   0.22983   0.08001   -0.326285           
         C         C         0.30833   0.22584   0.14099   0.286391  
         N         N         0.27790   0.19249   0.09914   -0.399376           
         C         C         0.30114   0.25500   0.25964   0.049675  
         N         N         0.34587   0.29231   0.24453   -0.402901           
         C         C         0.34784   0.33062   0.18955   -0.027741           
         C         C         0.29829   0.31831   0.25195   -0.189135           
         C         C         0.27349   0.27221   0.22752   -0.197240           
         N         N         0.11285   0.03741   0.87416   -0.229010           
         N         N         0.55423   0.28368   0.93759   -0.236852           
         C         C         0.08608   0.04994   0.85990   0.116192  
         C         C         0.58091   0.27164   0.95798   0.120451  
         C         C         0.04800   0.02398   0.82046   -0.251453           
         C         C         0.62002   0.29887   0.98852   -0.253501           
         C         C         0.02249   0.04172   0.80132   0.351972  
         C         C         0.64631   0.28177   0.00634   0.351776  
         O         O         0.03591   0.07990   0.81686   -0.479755           
         O         O         0.63348   0.24356   0.99519   -0.480956           
         H         H         0.30613   0.09419   0.81465   0.103286  
         H         H         0.38249   0.13438   0.80706   0.101715  
         H         H         0.21898   0.15351   0.01697   0.109093  
         H         H         0.14523   0.11288   0.98809   0.120372  
         H         H         0.17011   0.01457   0.83365   0.122768  
         H         H         0.24332   0.05483   0.86388   0.101401  
         H         H         0.42643   0.15617   0.98857   0.105831  
         H         H         0.50265   0.19803   -0.00382  0.119061  
         H         H         0.51150   0.31232   0.84549   0.127364  
         H         H         0.43506   0.27009   0.83768   0.102664  
         H         H         0.37631   0.25198   0.10926   0.277073  
         H         H         0.28336   0.23647   0.39750   0.072777  
         H         H         0.34799   0.29231   0.36751   0.220508  
         H         H         0.36516   0.34091   0.04189   0.060282  
         H         H         0.36820   0.35662   0.24685   0.076653  
         H         H         0.29381   0.33856   0.17569   0.090320  
         H         H         0.28568   0.32028   0.39450   0.088366  
         H         H         0.27349   0.27080   0.09167   0.090329  
         H         H         0.23788   0.25351   0.32152   0.112317  
         H         H         0.10148   0.00665   0.84907   0.273402  
         H         H         0.56742   0.31565   0.94594   0.272673  
         H         H         0.09433   0.08166   0.87786   0.099427  
         H         H         0.57246   0.23953   0.94865   0.103139  
         C         C         0.88628   0.19040   0.74976   -0.154803           
         C         C         0.86046   0.20897   0.78992   -0.143646           
         C         C         0.81514   0.18743   0.91406   -0.022843           
         C         C         0.79809   0.14646   0.99547   0.093156  
         C         C         0.82355   0.12710   0.95585   0.107030  
         C         C         0.86885   0.14913   0.82947   0.016507  
         C         C         0.89575   0.12961   0.79544   0.064351  
         C         C         0.78672   0.20551   0.95582   0.066895  
         C         C         0.87755   0.08794   0.76574   -0.092655           
         C         C         0.90076   0.06768   0.75067   -0.189421           
         C         C         0.94295   0.08875   0.76723   0.208559  
         C         C         0.96214   0.13087   0.79042   -0.187034           
         C         C         0.93885   0.15100   0.80375   -0.125988           
         C         C         0.80249   0.24652   0.99187   -0.113193           
         C         C         0.77617   0.26408   0.02204   -0.183594           
         C         C         0.73295   0.24089   0.01477   0.205208  
         C         C         0.71594   0.19920   0.98684   -0.184636           
         C         C         0.74235   0.18193   0.95927   -0.133769           
         N         N         0.75698   0.11716   0.13108   -0.334763           
         C         C         0.75950   0.08313   0.16875   0.283053  
         N         N         0.79836   0.08748   0.06568   -0.406985           
         C         C         0.72205   0.04712   0.31991   0.055036  
         N         N         0.68187   0.05094   0.39723   -0.411877           
         C         C         0.64418   0.01406   0.36716   -0.026018           
         C         C         0.65383   0.97885   0.36546   -0.197574           
         C         C         0.70560   0.00330   0.26362   -0.194543           
         N         N         0.96687   0.06971   0.76724   -0.230133           
         N         N         0.70585   0.25722   0.02909   -0.233206           
         C         C         0.95572   0.03026   0.75016   0.121281  
         C         C         0.71550   0.29632   0.04593   0.118822  
         C         C         0.98198   0.01507   0.76424   -0.246940           
         C         C         0.68751   0.30974   0.03673   -0.245608           
         C         C         0.96634   0.97124   0.74718   0.362688  
         C         C         0.70190   0.35322   0.05575   0.356676  
         O         O         0.93023   0.94773   0.72015   -0.479709           
         O         O         0.73804   0.37664   0.08371   -0.474430           
         H         H         0.92074   0.20813   0.64841   0.103235  
         H         H         0.87535   0.24050   0.71829   0.101568  
         H         H         0.84473   0.07157   0.75436   0.111722  
         H         H         0.88577   0.03545   0.72808   0.119229  
         H         H         0.99487   0.14705   0.80267   0.123009  
         H         H         0.95324   0.18305   0.82910   0.104685  
         H         H         0.83590   0.26467   -0.00205  0.108421  
         H         H         0.78943   0.29579   0.05073   0.119271  
         H         H         0.68228   0.18110   0.98284   0.121190  
         H         H         0.72934   0.15005   0.93274   0.093294  
         H         H         0.73030   0.11963   0.20474   0.272811  
         H         H         0.73581   0.04890   0.42285   0.068601  
         H         H         0.67419   0.05052   0.53251   0.215133  
         H         H         0.64473   0.02176   0.23441   0.056763  
         H         H         0.61139   0.00633   0.46906   0.079737  
         H         H         0.63544   0.95316   0.30185   0.090940  
         H         H         0.64427   0.96504   0.50415   0.088064  
         H         H         0.71482   0.00711   0.11732   0.092336  
         H         H         0.72175   0.98831   0.29547   0.109544  
         H         H         0.99756   0.08616   0.78734   0.270396  
         H         H         0.67481   0.23949   0.01249   0.272551  
         H         H         0.92517   0.00909   0.72572   0.099620  
         H         H         0.74636   0.31878   0.06606   0.102528  
         C         C         0.80441   0.67661   0.97791   -0.150250           
         C         C         0.78230   0.63281   0.02205   -0.147964           
         C         C         0.80130   0.61288   0.07281   -0.030800           
         C         C         0.84312   0.64109   0.08598   0.089248  
         C         C         0.86638   0.68579   0.04058   0.099236  
         C         C         0.84767   0.70520   0.97995   0.018892  
         C         C         0.87130   0.75103   0.91903   0.054979  
         C         C         0.78060   0.56699   0.09230   0.066743  
         C         C         0.91648   0.77870   0.90380   -0.094380           
         C         C         0.93920   0.82195   0.84867   -0.188602           
         C         C         0.91772   0.83993   0.80574   0.209824  
         C         C         0.87323   0.81296   0.81451   -0.186669           
         C         C         0.85066   0.76959   0.87067   -0.117030           
         C         C         0.73330   0.53896   0.14521   -0.114816           
         C         C         0.71393   0.49597   0.14653   -0.187839           
         C         C         0.74159   0.47932   0.09467   0.208233  
         C         C         0.78852   0.50641   0.04813   -0.179272           
         C         C         0.80750   0.54934   0.04635   -0.132223           
         N         N         0.87143   0.63389   0.13618   -0.326938           
         C         C         0.90860   0.67253   0.12417   0.282723  
         N         N         0.90728   0.70411   0.06476   -0.391046           
         C         C         0.94464   0.67670   0.18188   0.047131  
         N         N         0.93659   0.63465   0.23139   -0.398301           
         C         C         0.97408   0.63303   0.09596   -0.031641           
         C         C         0.01536   0.67860   0.03856   -0.193978           
         C         C         0.99396   0.70433   0.03679   -0.200221           
         N         N         0.93868   0.88366   0.75952   -0.233308           
         N         N         0.72443   0.43678   0.08449   -0.238272           
         C         C         0.97810   0.91280   0.77184   0.110656  
         C         C         0.68658   0.40992   0.05787   0.129487  
         C         C         0.99334   0.95511   0.76486   -0.236335           
         C         C         0.67409   0.36859   0.04146   -0.248433           
         C         C         0.03521   0.98137   0.79550   0.361518  
         C         C         0.63324   0.34213   0.00534   0.354773  
         O         O         0.05887   0.96676   0.80381   -0.478961           
         O         O         0.60968   0.35637   0.99083   -0.484164           
         H         H         0.78795   0.68871   0.93047   0.105392  
         H         H         0.75045   0.61332   0.00446   0.104887  
         H         H         0.93346   0.76568   0.94025   0.106519  
         H         H         0.97358   0.84162   0.84354   0.118080  
         H         H         0.85653   0.82634   0.77708   0.123014  
         H         H         0.81629   0.75014   0.87529   0.100606  
         H         H         0.71136   0.55128   0.18713   0.106006  
         H         H         0.67730   0.47508   0.18975   0.124132  
         H         H         0.81009   0.49371   0.00588   0.124028  
         H         H         0.84426   0.56982   -0.00121  0.096716  
         H         H         0.86365   0.60647   0.20111   0.275983  
         H         H         0.94204   0.69147   0.30051   0.074495  
         H         H         0.93792   0.63254   0.35516   0.226076  
         H         H         0.96505   0.62190   0.97991   0.064793  
         H         H         0.97910   0.61033   0.15180   0.082628  
         H         H         0.04212   0.68460   0.90814   0.092501  
         H         H         0.03041   0.68596   0.14020   0.087619  
         H         H         0.99319   0.70883   0.90434   0.090386  
         H         H         0.01220   0.73583   0.06731   0.110114  
         H         H         0.92189   0.89740   0.73813   0.275414  
         H         H         0.74194   0.42206   0.08918   0.272082  
         H         H         0.99874   0.90253   0.79569   0.098181  
         H         H         0.66548   0.42085   0.04420   0.100949  
         C         C         0.32212   0.13019   0.39394   -0.154082           
         C         C         0.36697   0.15394   0.38254   -0.142891           
         C         C         0.38527   0.19348   0.43311   -0.026198           
         C         C         0.35369   0.20528   0.50695   0.093694  
         C         C         0.30761   0.18127   0.52443   0.094178  
         C         C         0.29060   0.14261   0.46088   0.018574  
         C         C         0.24498   0.11770   0.45627   0.058807  
         C         C         0.43243   0.21998   0.41910   0.067862  
         C         C         0.21496   0.13206   0.50397   -0.093766           
         C         C         0.17364   0.11051   0.48375   -0.185500           
         C         C         0.16054   0.07315   0.41515   0.220887  
         C         C         0.18869   0.05704   0.37628   -0.181290           
         C         C         0.22990   0.07895   0.39581   -0.119483           
         C         C         0.45429   0.20231   0.46234   -0.115322           
         C         C         0.49752   0.22743   0.46392   -0.183308           
         C         C         0.52073   0.27156   0.41970   0.207897  
         C         C         0.50044   0.28972   0.36757   -0.181163           
         C         C         0.45703   0.26427   0.36803   -0.134952           
         N         N         0.35829   0.23984   0.58419   -0.326455           
         C         C         0.31679   0.23565   0.64760   0.281306  
         N         N         0.28572   0.20155   0.61230   -0.392371           
         C         C         0.30941   0.26482   0.76375   0.046821  
         N         N         0.35380   0.30283   0.74519   -0.402914           
         C         C         0.35639   0.33921   0.66375   -0.029201           
         C         C         0.30714   0.32782   0.72734   -0.192754           
         C         C         0.28058   0.28019   0.72800   -0.199005           
         N         N         0.12093   0.05074   0.38178   -0.233307           
         N         N         0.56277   0.29832   0.43248   -0.230740           
         C         C         0.09426   0.06387   0.37187   0.120425  
         C         C         0.58931   0.28684   0.45874   0.116658  
         C         C         0.05703   0.03922   0.32558   -0.255180           
         C         C         0.62800   0.31419   0.49130   -0.249866           
         C         C         0.03081   0.05705   0.31437   0.352381  
         C         C         0.65324   0.29662   0.51581   0.351462  
         O         O         0.04260   0.09428   0.34066   -0.483142           
         O         O         0.63879   0.25783   0.51131   -0.475209           
         H         H         0.31181   0.10103   0.34254   0.104844  
         H         H         0.38883   0.14192   0.32669   0.102195  
         H         H         0.22459   0.16078   0.55828   0.103254  
         H         H         0.15161   0.12277   0.52187   0.119578  
         H         H         0.17827   0.02776   0.32530   0.122883  
         H         H         0.25077   0.06551   0.36137   0.099038  
         H         H         0.43588   0.16827   0.50423   0.105368  
         H         H         0.51229   0.21287   0.50843   0.122092  
         H         H         0.51912   0.32380   0.32629   0.127174  
         H         H         0.44212   0.27890   0.32477   0.103246  
         H         H         0.38527   0.26280   0.60866   0.278270  
         H         H         0.29210   0.24641   0.90114   0.072295  
         H         H         0.35446   0.30631   0.87039   0.221649  
         H         H         0.37127   0.34341   0.51583   0.064975  
         H         H         0.37886   0.36827   0.70086   0.081477  
         H         H         0.30242   0.34596   0.64111   0.091259  
         H         H         0.29641   0.33390   0.86427   0.087357  
         H         H         0.27780   0.27412   0.59788   0.090721  
         H         H         0.24588   0.26337   0.83073   0.109803  
         H         H         0.11028   0.02090   0.34624   0.272422  
         H         H         0.57533   0.33025   0.43638   0.274618  
         H         H         0.10183   0.09485   0.40036   0.103531  
         H         H         0.58090   0.25464   0.45309   0.102606  
         C         C         0.88468   0.19676   0.27209   -0.153309           
         C         C         0.85890   0.21528   0.30966   -0.143245           
         C         C         0.81278   0.19311   0.42475   -0.021782           
         C         C         0.79484   0.15128   0.49899   0.093221  
         C         C         0.82051   0.13214   0.46575   0.106347  
         C         C         0.86678   0.15503   0.34804   0.021338  
         C         C         0.89515   0.13713   0.31611   0.059516  
         C         C         0.78556   0.21241   0.46627   0.064123  
         C         C         0.87941   0.09569   0.28543   -0.089640           
         C         C         0.90521   0.07802   0.26821   -0.186485           
         C         C         0.94752   0.10135   0.28358   0.206962  
         C         C         0.96423   0.14323   0.30761   -0.186816           
         C         C         0.93845   0.16080   0.32261   -0.126976           
         C         C         0.80276   0.25324   0.50597   -0.119429           
         C         C         0.77810   0.27250   0.53700   -0.183978           
         C         C         0.73498   0.25123   0.52891   0.207252  
         C         C         0.71666   0.20984   0.49570   -0.180553           
         C         C         0.74162   0.19097   0.46544   -0.135982           
         N         N         0.75242   0.12107   0.62496   -0.328075           
         C         C         0.75389   0.08630   0.66269   0.276032  
         N         N         0.79394   0.09169   0.57062   -0.397742           
         C         C         0.71415   0.04898   0.80483   0.060564  
         N         N         0.67048   0.04546   0.83169   -0.409851           
         C         C         0.63487   -0.00002  0.85939   -0.027785           
         C         C         0.65605   0.97530   0.88044   -0.190332           
         C         C         0.70669   0.00599   0.76625   -0.193372           
         N         N         0.97366   0.08452   0.28155   -0.224978           
         N         N         0.70960   0.26955   0.54620   -0.235169           
         C         C         0.96449   0.04580   0.25836   0.123206  
         C         C         0.72199   0.30972   0.55351   0.117690  
         C         C         0.99102   0.03100   0.27162   -0.248310           
         C         C         0.69505   0.32436   0.54224   -0.245456           
         C         C         0.97608   0.98770   0.24610   0.361758  
         C         C         0.71119   0.36868   0.55001   0.362867  
         O         O         0.94021   0.96488   0.21656   -0.478123           
         O         O         0.74854   0.39299   0.56768   -0.481113           
         H         H         0.91989   0.21518   0.17746   0.106852  
         H         H         0.87462   0.24756   0.24399   0.103312  
         H         H         0.84663   0.07748   0.27397   0.114249  
         H         H         0.89192   0.04585   0.24565   0.119824  
         H         H         0.99694   0.16129   0.31968   0.120651  
         H         H         0.95110   0.19281   0.34739   0.101997  
         H         H         0.83593   0.26984   0.51441   0.110486  
         H         H         0.79235   0.30408   0.56713   0.118932  
         H         H         0.68339   0.19322   0.48786   0.125281  
         H         H         0.72758   0.15956   0.43286   0.096750  
         H         H         0.72402   0.12214   0.66996   0.277357  
         H         H         0.72033   0.05359   0.93052   0.061377  
         H         H         0.66127   0.05702   0.94347   0.233958  
         H         H         0.62579   0.99394   0.74079   0.059770  
         H         H         0.60390   0.99164   0.97577   0.075732  
         H         H         0.64169   0.94496   0.83605   0.099995  
         H         H         0.65073   0.96897   0.02204   0.086486  
         H         H         0.71359   0.00518   0.62279   0.098860  
         H         H         0.72948   -0.00021  0.79909   0.118714  
         H         H         0.00311   0.10146   0.30900   0.271183  
         H         H         0.67771   0.25259   0.53508   0.270404  
         H         H         0.93483   0.02453   0.22826   0.100363  
         H         H         0.75407   0.33206   0.56562   0.100278  
         C         C         0.81192   0.69445   0.46266   -0.153731           
         C         C         0.78952   0.65054   0.50323   -0.140753           
         C         C         0.80788   0.62996   0.55453   -0.030259           
         C         C         0.84932   0.65777   0.57193   0.100109  
         C         C         0.87360   0.70251   0.52458   0.096893  
         C         C         0.85548   0.72245   0.46339   0.020790  
         C         C         0.88011   0.76827   0.40049   0.055787  
         C         C         0.78753   0.58414   0.57218   0.069892  
         C         C         0.92277   0.79577   0.41008   -0.099412           
         C         C         0.94620   0.83906   0.35441   -0.194014           
         C         C         0.92784   0.85720   0.28760   0.208697  
         C         C         0.88587   0.83042   0.27293   -0.188393           
         C         C         0.86281   0.78697   0.32770   -0.119102           
         C         C         0.74094   0.55583   0.60946   -0.117327           
         C         C         0.72239   0.51290   0.61144   -0.180915           
         C         C         0.75002   0.49624   0.57623   0.208555  
         C         C         0.79614   0.52358   0.54399   -0.180332           
         C         C         0.81437   0.56647   0.54080   -0.142257           
         N         N         0.87667   0.64988   0.62548   -0.325232           
         C         C         0.91497   0.68799   0.60825   0.282754  
         N         N         0.91474   0.72007   0.54648   -0.393980           
         C         C         0.95163   0.69057   0.65669   0.050141  
         N         N         0.94296   0.64773   0.69782   -0.408092           
         C         C         0.98444   0.64831   0.58757   -0.031239           
         C         C         0.02341   0.69490   0.53120   -0.191166           
         C         C         0.00012   0.71731   0.50837   -0.191371           
         N         N         0.94933   0.90102   0.24208   -0.231122           
         N         N         0.73391   0.45371   0.56912   -0.236698           
         C         C         0.98877   0.92954   0.25538   0.123837  
         C         C         0.69578   0.42547   0.54690   0.118318  
         C         C         0.00342   0.97154   0.25760   -0.242539           
         C         C         0.68319   0.38405   0.53619   -0.246198           
         C         C         0.04505   0.99722   0.28997   0.355954  
         C         C         0.64177   0.35759   0.50317   0.360888  
         O         O         0.06933   0.98275   0.29062   -0.475561           
         O         O         0.61884   0.37211   0.48380   -0.489375           
         H         H         0.79536   0.70721   0.42024   0.105441  
         H         H         0.75792   0.63172   0.48309   0.101155  
         H         H         0.93700   0.78250   0.46601   0.106802  
         H         H         0.97820   0.85875   0.37030   0.116315  
         H         H         0.87159   0.84386   0.21757   0.121260  
         H         H         0.83101   0.76748   0.30997   0.101052  
         H         H         0.71874   0.56781   0.63698   0.106384  
         H         H         0.68627   0.49218   0.64149   0.118655  
         H         H         0.81788   0.51105   0.51552   0.123010  
         H         H         0.85086   0.58675   0.50199   0.089470  
         H         H         0.86925   0.62203   0.68370   0.277007  
         H         H         0.95090   0.70497   0.77706   0.072653  
         H         H         0.93587   0.64088   0.83133   0.220636  
         H         H         0.98063   0.63472   0.46750   0.060654  
         H         H         0.98947   0.62864   0.66418   0.076748  
         H         H         0.05225   0.70130   0.40808   0.093315  
         H         H         0.03613   0.70482   0.63911   0.089186  
         H         H         0.99886   0.71700   0.37426   0.091500  
         H         H         0.01700   0.75033   0.52428   0.114614  
         H         H         0.93260   0.91510   0.22351   0.275946  
         H         H         0.75262   0.44040   0.57223   0.276608  
         H         H         0.01001   0.91915   0.27161   0.098681  
         H         H         0.67393   0.43529   0.53228   0.097287 

