
##########################################################################
#               Crystallographic Information Format file
#               Produced by PyCifRW module
#
#  This is a CIF file.  CIF has been adopted by the International
#  Union of Crystallography as the standard for data archiving and
#  transmission.
#
#  For information on this file format, follow the CIF links at
#  http://www.iucr.org
##########################################################################

data_image0

_cell_length_a                          37.3021
_cell_length_b                          37.3375
_cell_length_c                          7.97114
_cell_angle_alpha                       89.7753
_cell_angle_beta                        88.9401
_cell_angle_gamma                       120.249
_symmetry_space_group_name_H-M          'P 1'
_space_group_name_Hall                  'P 1'
loop_
  _atom_site_type_symbol
  _atom_site_label
  _atom_site_fract_x
  _atom_site_fract_y
  _atom_site_fract_z
  _atom_site_charge
         C         C         0.31110   0.12791   0.36654   -0.155443           
         C         C         0.35416   0.14757   0.38870   -0.137409           
         C         C         0.37761   0.18850   0.44473   -0.026819           
         C         C         0.35442   0.20774   0.48064   0.093736  
         C         C         0.31087   0.18838   0.46009   0.099169  
         C         C         0.28805   0.14752   0.39974   0.024311  
         C         C         0.24274   0.12680   0.37955   0.066775  
         C         C         0.42261   0.20897   0.47231   0.072894  
         C         C         0.22492   0.14737   0.29822   -0.106831           
         C         C         0.18214   0.12882   0.28582   -0.149035           
         C         C         0.15552   0.08893   0.35365   0.200431  
         C         C         0.17323   0.06811   0.43438   -0.184010           
         C         C         0.21618   0.08678   0.44632   -0.127144           
         C         C         0.43939   0.18796   0.55780   -0.129731           
         C         C         0.48188   0.20600   0.57860   -0.147394           
         C         C         0.50952   0.24623   0.51630   0.197840  
         C         C         0.49298   0.26776   0.43241   -0.178460           
         C         C         0.45030   0.24941   0.41157   -0.140664           
         N         N         0.11274   0.07335   0.34366   -0.279511           
         N         N         0.55199   0.26111   0.53218   -0.276988           
         N         N         0.36549   0.24563   0.55227   -0.330295           
         C         C         0.32971   0.24757   0.57411   0.279332  
         N         N         0.29663   0.21415   0.51896   -0.387297           
         C         C         0.32904   0.28239   0.66309   0.057811  
         N         N         0.36716   0.32352   0.62774   -0.417402           
         C         C         0.35342   0.35372   0.58930   -0.031007           
         C         C         0.30785   0.33328   0.64858   -0.189522           
         C         C         0.29173   0.28720   0.61795   -0.194990           
         C         C         0.08713   0.03400   0.33722   0.073733  
         C         C         0.57807   0.30025   0.54390   0.071665  
         C         C         0.04221   0.01694   0.33639   0.061269  
         C         C         0.62289   0.31636   0.54352   0.062766  
         C         C         0.02500   0.04297   0.33792   -0.139388           
         C         C         0.65037   0.35914   0.54667   -0.140564           
         H         H         0.29493   0.09659   0.31799   0.109645  
         H         H         0.37033   0.13089   0.35841   0.101670  
         H         H         0.24506   0.17766   0.24055   0.106195  
         H         H         0.16842   0.14452   0.22080   0.118009  
         H         H         0.15313   0.03828   0.49581   0.106777  
         H         H         0.22932   0.07115   0.51592   0.101467  
         H         H         0.41834   0.15711   0.60898   0.108597  
         H         H         0.49473   0.18966   0.64490   0.118933  
         H         H         0.51387   0.29798   0.37546   0.104842  
         H         H         0.43841   0.26587   0.33954   0.098018  
         H         H         0.39452   0.26813   0.58152   0.285031  
         H         H         0.32683   0.27517   0.79851   0.061876  
         H         H         0.38416   0.33268   0.73394   0.229748  
         H         H         0.35598   0.35987   0.45309   0.058180  
         H         H         0.37368   0.38333   0.64983   0.075332  
         H         H         0.29042   0.34523   0.58211   0.096732  
         H         H         0.30604   0.33852   0.78317   0.086141  
         H         H         0.28390   0.27934   0.48606   0.097727  
         H         H         0.26403   0.26608   0.69336   0.117928  
         H         H         0.09751   0.01117   0.32964   0.063183  
         H         H         0.56803   0.32332   0.55348   0.063958  
         H         H         0.04591   0.07639   0.34050   0.110705  
         H         H         0.63911   0.38092   0.55420   0.111144  
         C         C         0.87278   0.18414   0.36948   -0.153663           
         C         C         0.85287   0.20727   0.39051   -0.139112           
         C         C         0.81140   0.18937   0.44736   -0.027600           
         C         C         0.79180   0.14691   0.48727   0.092379  
         C         C         0.81143   0.12305   0.46602   0.101859  
         C         C         0.85260   0.14136   0.40308   0.021923  
         C         C         0.87296   0.11657   0.38294   0.068029  
         C         C         0.79070   0.21385   0.46736   0.073441  
         C         C         0.85230   0.07776   0.30520   -0.105871           
         C         C         0.87049   0.05326   0.29449   -0.151257           
         C         C         0.91002   0.06685   0.35985   0.200940  
         C         C         0.93070   0.10566   0.43820   -0.183074           
         C         C         0.91241   0.13017   0.44861   -0.126455           
         C         C         0.81108   0.25291   0.54322   -0.129428           
         C         C         0.79270   0.27724   0.55456   -0.148656           
         C         C         0.75267   0.26306   0.49335   0.198644  
         C         C         0.73200   0.22401   0.41690   -0.179363           
         C         C         0.75081   0.19996   0.40488   -0.136797           
         N         N         0.92551   0.03968   0.34895   -0.280619           
         N         N         0.73702   0.29003   0.50539   -0.278442           
         N         N         0.75374   0.11985   0.56420   -0.332660           
         C         C         0.75227   0.08248   0.58861   0.279246  
         N         N         0.78585   0.08305   0.52925   -0.393183           
         C         C         0.71851   0.04757   0.68956   0.055492  
         N         N         0.67814   0.04671   0.68377   -0.420167           
         C         C         0.64719   0.00549   0.62027   -0.028870           
         C         C         0.66374   0.97623   0.66125   -0.195539           
         C         C         0.71066   0.00464   0.63362   -0.196150           
         C         C         0.96497   0.05383   0.33920   0.073325  
         C         C         0.69781   0.27634   0.52387   0.073013  
         C         C         0.98203   0.02618   0.33645   0.060366  
         C         C         0.68164   0.30481   0.52956   0.061321  
         C         C         0.95578   0.98281   0.33154   -0.140291           
         C         C         0.63884   0.28924   0.53535   -0.141407           
         H         H         0.90468   0.19963   0.32186   0.107357  
         H         H         0.86966   0.24020   0.35849   0.101672  
         H         H         0.82227   0.06749   0.24985   0.106222  
         H         H         0.85491   0.02342   0.23299   0.118028  
         H         H         0.96013   0.11548   0.49814   0.106151  
         H         H         0.92771   0.15930   0.51569   0.100217  
         H         H         0.84158   0.26381   0.59504   0.108782  
         H         H         0.80845   0.30737   0.61383   0.118590  
         H         H         0.70207   0.21356   0.36018   0.106758  
         H         H         0.73525   0.17066   0.33896   0.095015  
         H         H         0.73078   0.12551   0.59878   0.281248  
         H         H         0.72912   0.05261   0.81995   0.066747  
         H         H         0.66988   0.04954   0.80368   0.228220  
         H         H         0.64512   0.00764   0.48311   0.056947  
         H         H         0.61634   0.99574   0.67467   0.079509  
         H         H         0.65103   0.94869   0.58193   0.094392  
         H         H         0.65628   0.96554   0.79263   0.087432  
         H         H         0.71946   0.00605   0.50062   0.094596  
         H         H         0.72958   0.99515   0.70385   0.113696  
         H         H         0.98785   0.08724   0.33180   0.063463  
         H         H         0.67476   0.24312   0.53975   0.063877  
         H         H         0.92241   0.97041   0.32793   0.110835  
         H         H         0.61694   0.25602   0.53194   0.111324  
         C         C         0.81945   0.68707   0.35381   -0.153779           
         C         C         0.79669   0.64416   0.38374   -0.141019           
         C         C         0.81476   0.62168   0.44481   -0.027535           
         C         C         0.85725   0.64574   0.47783   0.089250  
         C         C         0.88083   0.68931   0.44876   0.099596  
         C         C         0.86208   0.71096   0.38365   0.024463  
         C         C         0.88560   0.75626   0.35882   0.067956  
         C         C         0.78997   0.57651   0.47373   0.074273  
         C         C         0.92481   0.77612   0.27759   -0.105549           
         C         C         0.94802   0.81911   0.26617   -0.149483           
         C         C         0.93277   0.84371   0.33442   0.200107  
         C         C         0.89320   0.82383   0.41345   -0.182290           
         C         C         0.87001   0.78076   0.42444   -0.126950           
         C         C         0.75059   0.55872   0.55331   -0.127851           
         C         C         0.72537   0.51601   0.57059   -0.145813           
         C         C         0.73863   0.48908   0.51071   0.197486  
         C         C         0.77820   0.50658   0.43230   -0.177572           
         C         C         0.80334   0.54948   0.41544   -0.138226           
         N         N         0.95927   0.88674   0.32706   -0.280182           
         N         N         0.71034   0.44649   0.52692   -0.281933           
         N         N         0.88470   0.63604   0.55220   -0.332502           
         C         C         0.92194   0.67260   0.56854   0.281257  
         N         N         0.92098   0.70493   0.50596   -0.395410           
         C         C         0.95673   0.67460   0.66610   0.056772  
         N         N         0.95627   0.63446   0.66742   -0.419075           
         C         C         0.99613   0.64291   0.58974   -0.025699           
         C         C         0.02720   0.68876   0.62401   -0.196523           
         C         C         0.00033   0.70883   0.60263   -0.198283           
         C         C         0.94480   0.91166   0.32610   0.072323  
         C         C         0.72284   0.42001   0.53399   0.072762  
         C         C         0.97238   0.95660   0.33048   0.061955  
         C         C         0.69366   0.37531   0.53814   0.062117  
         C         C         0.01579   0.97401   0.33377   -0.140497           
         C         C         0.70895   0.34803   0.52979   -0.141350           
         H         H         0.80392   0.70245   0.30115   0.107173  
         H         H         0.76386   0.62711   0.35524   0.103119  
         H         H         0.93645   0.75742   0.22085   0.104937  
         H         H         0.97837   0.83472   0.20354   0.117307  
         H         H         0.88166   0.84227   0.47363   0.106561  
         H         H         0.84025   0.76568   0.49196   0.102992  
         H         H         0.74019   0.57908   0.60356   0.108878  
         H         H         0.69509   0.50239   0.63329   0.119100  
         H         H         0.78846   0.48644   0.37815   0.104955  
         H         H         0.83316   0.56230   0.34908   0.095314  
         H         H         0.87931   0.60800   0.59377   0.281543  
         H         H         0.95154   0.68144   0.79549   0.067952  
         H         H         0.95501   0.62566   0.79011   0.222773  
         H         H         0.99257   0.63811   0.45309   0.057708  
         H         H         0.00513   0.62123   0.63959   0.079148  
         H         H         0.05488   0.70238   0.54099   0.092943  
         H         H         0.03787   0.69201   0.75358   0.085292  
         H         H         -0.00087  0.71644   0.47054   0.094492  
         H         H         0.01120   0.73757   0.67274   0.111430  
         H         H         0.91134   0.90067   0.32179   0.063808  
         H         H         0.75595   0.42941   0.53596   0.062593  
         H         H         0.02815   0.95309   0.33366   0.110310  
         H         H         0.74217   0.35942   0.52224   0.109993  
         C         C         0.31130   0.12804   0.86580   -0.155637           
         C         C         0.35418   0.14778   0.89046   -0.142462           
         C         C         0.37730   0.18858   0.94838   -0.027632           
         C         C         0.35408   0.20790   0.98335   0.091288  
         C         C         0.31063   0.18840   0.95890   0.103346  
         C         C         0.28823   0.14765   0.89759   0.022968  
         C         C         0.24303   0.12686   0.87579   0.066646  
         C         C         0.42222   0.20852   0.97462   0.072941  
         C         C         0.22538   0.14713   0.79125   -0.106691           
         C         C         0.18265   0.12851   0.77779   -0.148894           
         C         C         0.15598   0.08901   0.84848   0.197907  
         C         C         0.17354   0.06843   0.93217   -0.183482           
         C         C         0.21645   0.08716   0.94509   -0.128803           
         C         C         0.43906   0.18639   0.05080   -0.128483           
         C         C         0.48161   0.20401   0.06855   -0.147624           
         C         C         0.50918   0.24482   0.01216   0.199032  
         C         C         0.49256   0.26728   0.93644   -0.178487           
         C         C         0.44988   0.24939   0.91870   -0.136545           
         N         N         0.11327   0.07359   0.83736   -0.277817           
         N         N         0.55171   0.25966   0.02684   -0.282128           
         N         N         0.36445   0.24549   0.05662   -0.333090           
         C         C         0.32835   0.24694   0.07597   0.280883  
         N         N         0.29575   0.21376   0.01636   -0.395549           
         C         C         0.32651   0.28000   0.17425   0.053204  
         N         N         0.36677   0.31993   0.17102   -0.418377           
         C         C         0.35839   0.35123   0.09667   -0.025979           
         C         C         0.31246   0.33609   0.13744   -0.196937           
         C         C         0.29254   0.28914   0.11522   -0.196620           
         C         C         0.08765   0.03423   0.83441   0.072379  
         C         C         0.57736   0.29881   0.04149   0.073056  
         C         C         0.04279   0.01733   0.83251   0.061676  
         C         C         0.62229   0.31584   0.04026   0.062546  
         C         C         0.02589   0.04366   0.83277   -0.140242           
         C         C         0.64877   0.35878   0.04404   -0.140960           
         H         H         0.29536   0.09676   0.81676   0.109434  
         H         H         0.37059   0.13136   0.86006   0.103017  
         H         H         0.24560   0.17721   0.73222   0.104308  
         H         H         0.16889   0.14376   0.70998   0.117642  
         H         H         0.15345   0.03880   0.99508   0.106036  
         H         H         0.22958   0.07192   0.01731   0.102286  
         H         H         0.41801   0.15508   0.09762   0.107955  
         H         H         0.49459   0.18694   0.12808   0.118451  
         H         H         0.51340   0.29806   0.88392   0.104499  
         H         H         0.43776   0.26653   0.85295   0.097131  
         H         H         0.39262   0.26786   0.09575   0.280827  
         H         H         0.31921   0.26817   0.30443   0.068581  
         H         H         0.37553   0.32761   0.29254   0.223444  
         H         H         0.36329   0.35238   0.95933   0.057214  
         H         H         0.38015   0.38210   0.14383   0.077843  
         H         H         0.29897   0.34998   0.05687   0.092770  
         H         H         0.30882   0.34327   0.26802   0.086594  
         H         H         0.28582   0.28086   0.98305   0.093281  
         H         H         0.26332   0.27078   0.18646   0.113002  
         H         H         0.09809   0.01138   0.83161   0.062889  
         H         H         0.56683   0.32146   0.05404   0.062400  
         H         H         0.04716   0.07702   0.83565   0.110611  
         H         H         0.63635   0.37963   0.05070   0.110587  
         C         C         0.87266   0.18405   0.86841   -0.153343           
         C         C         0.85295   0.20740   0.88923   -0.140109           
         C         C         0.81169   0.19003   0.94824   -0.027502           
         C         C         0.79206   0.14762   0.98932   0.093403  
         C         C         0.81150   0.12350   0.96913   0.100984  
         C         C         0.85259   0.14141   0.90520   0.023665  
         C         C         0.87294   0.11656   0.88401   0.068386  
         C         C         0.79140   0.21498   0.96788   0.075676  
         C         C         0.85248   0.07797   0.80433   -0.107290           
         C         C         0.87094   0.05375   0.79037   -0.148956           
         C         C         0.91055   0.06730   0.85475   0.199216  
         C         C         0.93101   0.10583   0.93511   -0.183308           
         C         C         0.91252   0.13012   0.94832   -0.126717           
         C         C         0.81213   0.25409   0.04350   -0.127265           
         C         C         0.79408   0.27878   0.05443   -0.147090           
         C         C         0.75412   0.26502   0.99303   0.197217  
         C         C         0.73319   0.22588   0.91710   -0.174773           
         C         C         0.75153   0.20141   0.90581   -0.138263           
         N         N         0.92638   0.04046   0.84162   -0.279412           
         N         N         0.73868   0.29225   0.00654   -0.283085           
         N         N         0.75380   0.12070   0.06484   -0.331740           
         C         C         0.75179   0.08306   0.08859   0.277767  
         N         N         0.78547   0.08348   0.03125   -0.391002           
         C         C         0.71726   0.04785   0.18557   0.058952  
         N         N         0.67631   0.04549   0.16749   -0.420743           
         C         C         0.64609   0.00256   0.11663   -0.029646           
         C         C         0.66462   0.97568   0.16797   -0.193779           
         C         C         0.71117   0.00525   0.13598   -0.197451           
         C         C         0.96588   0.05481   0.83223   0.073340  
         C         C         0.69929   0.27850   0.01740   0.073488  
         C         C         0.98297   0.02714   0.82990   0.061523  
         C         C         0.68243   0.30640   0.02598   0.061815  
         C         C         0.95654   0.98378   0.82595   -0.140654           
         C         C         0.63941   0.28975   0.03173   -0.140815           
         H         H         0.90433   0.19921   0.81797   0.107600  
         H         H         0.86965   0.24007   0.85354   0.103446  
         H         H         0.82233   0.06758   0.75007   0.106669  
         H         H         0.85536   0.02412   0.72733   0.118249  
         H         H         0.96051   0.11558   0.99421   0.106613  
         H         H         0.92792   0.15907   0.01652   0.100788  
         H         H         0.84251   0.26466   0.09617   0.106455  
         H         H         0.81004   0.30890   0.11377   0.118305  
         H         H         0.70333   0.21550   0.85986   0.104911  
         H         H         0.73564   0.17200   0.84063   0.096337  
         H         H         0.73090   0.12674   0.09573   0.282683  
         H         H         0.72603   0.05324   0.31833   0.063959  
         H         H         0.66731   0.05042   0.28265   0.229402  
         H         H         0.64265   0.00173   0.97948   0.057654  
         H         H         0.61547   0.99268   0.17360   0.077751  
         H         H         0.65249   0.94689   0.09684   0.096239  
         H         H         0.65797   0.96718   0.30165   0.086466  
         H         H         0.71946   0.00571   0.00284   0.096399  
         H         H         0.73135   0.99763   0.20746   0.117497  
         H         H         0.98864   0.08826   0.82549   0.063477  
         H         H         0.67611   0.24516   0.02315   0.062589  
         H         H         0.92320   0.97165   0.82302   0.110858  
         H         H         0.61831   0.25635   0.02934   0.110895  
         C         C         0.81579   0.68840   0.86227   -0.156392           
         C         C         0.79237   0.64538   0.89071   -0.138523           
         C         C         0.80998   0.62210   0.94751   -0.026727           
         C         C         0.85273   0.64542   0.97674   0.094947  
         C         C         0.87690   0.68895   0.94928   0.099711  
         C         C         0.85865   0.71152   0.88910   0.024646  
         C         C         0.88307   0.75690   0.86619   0.065971  
         C         C         0.78514   0.57693   0.97682   0.071253  
         C         C         0.92181   0.77598   0.78123   -0.104844           
         C         C         0.94581   0.81890   0.76935   -0.150551           
         C         C         0.93180   0.84426   0.84031   0.200444  
         C         C         0.89286   0.82524   0.92432   -0.181887           
         C         C         0.86896   0.78220   0.93653   -0.129615           
         C         C         0.74643   0.55899   0.06190   -0.129271           
         C         C         0.72150   0.51623   0.07993   -0.148520           
         C         C         0.73455   0.48949   0.01583   0.198663  
         C         C         0.77347   0.50719   0.93185   -0.176450           
         C         C         0.79824   0.55007   0.91383   -0.137793           
         N         N         0.95884   0.88716   0.83007   -0.280219           
         N         N         0.70673   0.44676   0.03149   -0.282064           
         N         N         0.87990   0.63473   0.04681   -0.330725           
         C         C         0.91780   0.67075   0.06168   0.278283  
         N         N         0.91718   0.70358   0.00296   -0.387585           
         C         C         0.95360   0.67210   0.14936   0.057639  
         N         N         0.95832   0.63519   0.11550   -0.417247           
         C         C         0.00308   0.65095   0.07720   -0.031637           
         C         C         0.02657   0.69584   0.13759   -0.190493           
         C         C         0.99575   0.71050   0.10189   -0.194988           
         C         C         0.94486   0.91243   0.82469   0.076371  
         C         C         0.72024   0.42106   0.03657   0.074696  
         C         C         0.97284   0.95734   0.82621   0.060852  
         C         C         0.69221   0.37612   0.03777   0.061920  
         C         C         0.01619   0.97444   0.82980   -0.140436           
         C         C         0.70870   0.34981   0.02890   -0.140323           
         H         H         0.80047   0.70445   0.81428   0.109170  
         H         H         0.75936   0.62912   0.86496   0.102231  
         H         H         0.93252   0.75680   0.72157   0.106689  
         H         H         0.97564   0.83377   0.70261   0.118272  
         H         H         0.88249   0.84433   0.98750   0.104668  
         H         H         0.83987   0.76782   0.00866   0.102109  
         H         H         0.73609   0.57921   0.11441   0.107432  
         H         H         0.69147   0.50247   0.14492   0.118725  
         H         H         0.78321   0.48718   0.87246   0.105217  
         H         H         0.82724   0.56293   0.84138   0.097526  
         H         H         0.87318   0.60587   0.08239   0.284503  
         H         H         0.94766   0.67325   0.28479   0.061667  
         H         H         0.95009   0.61731   0.22197   0.229821  
         H         H         0.00774   0.65067   0.94060   0.058141  
         H         H         0.01304   0.63072   0.13435   0.076303  
         H         H         0.05679   0.71469   0.07325   0.097650  
         H         H         0.03196   0.69664   0.27293   0.085118  
         H         H         0.99655   0.71820   0.96828   0.097268  
         H         H         0.00093   0.73774   0.17285   0.118987  
         H         H         0.91150   0.90182   0.81844   0.063465  
         H         H         0.75359   0.43153   0.03900   0.062236  
         H         H         0.02833   0.95333   0.83052   0.110221  
         H         H         0.74213   0.36232   0.02412   0.110269 

