
##########################################################################
#               Crystallographic Information Format file
#               Produced by PyCifRW module
#
#  This is a CIF file.  CIF has been adopted by the International
#  Union of Crystallography as the standard for data archiving and
#  transmission.
#
#  For information on this file format, follow the CIF links at
#  http://www.iucr.org
##########################################################################

data_image0

_cell_length_a                          22.8811
_cell_length_b                          21.3327
_cell_length_c                          10.0959
_cell_angle_alpha                       61.8615
_cell_angle_beta                        85.2022
_cell_angle_gamma                       86.0194
_symmetry_space_group_name_H-M          'P 1'
_space_group_name_Hall                  'P 1'
loop_
  _atom_site_type_symbol
  _atom_site_label
  _atom_site_fract_x
  _atom_site_fract_y
  _atom_site_fract_z
  _atom_site_charge
         H         H         0.96580   0.85007   0.66730   0.107684  
         C         C         0.06683   0.17904   0.25661   -0.166838           
         C         C         0.04351   0.11755   0.27118   -0.121045           
         H         H         0.05610   0.23058   0.16315   0.119562  
         H         H         0.01390   0.12140   0.18894   0.102859  
         C         C         0.03525   0.89338   0.32649   -0.124942           
         C         C         0.06642   0.83681   0.31914   -0.175842           
         H         H         0.99299   0.90972   0.27712   0.098948  
         H         H         0.04734   0.80931   0.26669   0.108290  
         C         C         0.86792   0.05745   0.43420   -0.127456           
         C         C         0.83440   0.10888   0.45715   -0.167790           
         H         H         0.84694   0.02872   0.38775   0.106789  
         H         H         0.78902   0.12030   0.42614   0.121466  
         C         C         0.90718   0.79980   0.59361   -0.152354           
         C         C         0.93630   0.85763   0.58164   -0.127689           
         H         H         0.91344   0.74708   0.68794   0.120075  
         H         H         0.99428   0.06625   0.57659   0.100398  
         C         C         0.05575   0.05041   0.39252   0.059947  
         C         C         0.09552   0.04663   0.49514   -0.132336           
         C         C         0.12035   0.10780   0.47957   -0.184077           
         C         C         0.10537   0.17513   0.36194   0.203738  
         H         H         0.10431   0.99641   0.59423   0.104982  
         H         H         0.14836   0.10434   0.56486   0.115540  
         C         C         0.02256   0.98805   0.41337   -0.021445           
         C         C         0.05729   0.93074   0.39495   0.065445  
         C         C         0.12211   0.81454   0.37896   0.199179  
         C         C         0.14577   0.85373   0.44027   -0.160389           
         C         C         0.11471   0.91108   0.44522   -0.133874           
         H         H         0.13493   0.93953   0.49342   0.110285  
         H         H         0.18899   0.83753   0.48524   0.121250  
         C         C         0.34115   0.48256   0.37403   0.167011  
         C         C         0.37610   0.42305   0.46498   -0.175905           
         C         C         0.43635   0.42844   0.46501   -0.132850           
         C         C         0.46407   0.49368   0.37865   0.046726  
         C         C         0.42856   0.55326   0.28985   -0.131901           
         C         C         0.36851   0.54772   0.28546   -0.173788           
         C         C         0.56761   0.44545   0.38452   -0.124936           
         C         C         0.52760   0.49844   0.38538   0.032252  
         C         C         0.55087   0.55471   0.39758   -0.130028           
         C         C         0.61010   0.55562   0.41875   -0.186442           
         C         C         0.64964   0.50117   0.42201   0.178572  
         C         C         0.62733   0.44747   0.39821   -0.189259           
         N         N         0.27957   0.47811   0.37127   -0.127753           
         C         C         0.24365   0.53856   0.35505   0.168367  
         C         C         0.25411   0.57111   0.44341   -0.181732           
         C         C         0.22309   0.63241   0.42530   -0.092379           
         C         C         0.17895   0.66214   0.32128   0.044928  
         C         C         0.16792   0.62869   0.23483   -0.113210           
         C         C         0.20010   0.56789   0.25014   -0.176878           
         C         C         0.28971   0.37109   0.33743   -0.204403           
         C         C         0.25520   0.41820   0.37575   0.186997  
         C         C         0.19523   0.40379   0.41870   -0.183115           
         C         C         0.17045   0.34729   0.41434   -0.088736           
         C         C         0.20453   0.30155   0.37124   0.030393  
         C         C         0.26478   0.31380   0.33662   -0.115432           
         C         C         0.72782   0.62910   0.30769   -0.172988           
         C         C         0.73494   0.56273   0.43476   0.166904  
         N         N         0.70928   0.50042   0.44978   -0.134484           
         C         C         0.76860   0.55657   0.55096   -0.179937           
         C         C         0.79414   0.61569   0.54174   -0.094849           
         C         C         0.78728   0.68274   0.41490   0.048361  
         C         C         0.75398   0.68812   0.29853   -0.113094           
         C         C         0.72860   0.37035   0.58033   -0.176652           
         C         C         0.74702   0.43972   0.48115   0.176750  
         C         C         0.80345   0.44836   0.40930   -0.176905           
         C         C         0.83750   0.38913   0.42338   -0.118628           
         C         C         0.81626   0.32000   0.50785   0.043147  
         C         C         0.76230   0.31148   0.59179   -0.093522           
         C         C         0.14516   0.72558   0.30543   0.069032  
         C         C         0.18014   0.24244   0.36286   0.071016  
         C         C         0.81385   0.74614   0.39940   0.065657  
         C         C         0.84858   0.26104   0.49728   0.072125  
         N         N         0.15561   0.75578   0.38594   -0.297812           
         N         N         0.82464   0.20157   0.53235   -0.290862           
         N         N         0.84355   0.74539   0.50391   -0.302786           
         N         N         0.12479   0.23787   0.35339   -0.295819           
         H         H         0.35553   0.37269   0.53674   0.117748  
         H         H         0.46234   0.38186   0.53797   0.111215  
         H         H         0.44863   0.60429   0.21981   0.111989  
         H         H         0.34216   0.59399   0.21323   0.127728  
         H         H         0.55176   0.40309   0.36712   0.109033  
         H         H         0.52146   0.59711   0.39758   0.108440  
         H         H         0.62575   0.59795   0.43607   0.120675  
         H         H         0.65689   0.40709   0.39057   0.121823  
         H         H         0.28672   0.54708   0.52707   0.105217  
         H         H         0.23108   0.65810   0.49260   0.112308  
         H         H         0.13489   0.65203   0.15161   0.114034  
         H         H         0.19245   0.54408   0.17900   0.121560  
         H         H         0.33626   0.37933   0.30855   0.114527  
         H         H         0.16848   0.43723   0.45604   0.126290  
         H         H         0.12427   0.33659   0.44776   0.114191  
         H         H         0.29225   0.27876   0.30474   0.111417  
         H         H         0.70281   0.63391   0.21619   0.120311  
         H         H         0.77419   0.50472   0.64837   0.107733  
         H         H         0.81932   0.61173   0.63234   0.109001  
         H         H         0.74972   0.73926   0.19837   0.109283  
         H         H         0.68695   0.36341   0.64512   0.123105  
         H         H         0.81934   0.50165   0.33933   0.123004  
         H         H         0.88016   0.39635   0.36232   0.111607  
         H         H         0.74752   0.25787   0.66499   0.117498  
         H         H         0.11146   0.74568   0.22211   0.071418  
         H         H         0.21201   0.20157   0.36169   0.068609  
         H         H         0.80743   0.79399   0.29146   0.067680  
         H         H         0.89379   0.27168   0.44759   0.069165  
         C         C         0.92759   0.04238   0.46849   0.058397  
         C         C         0.85913   0.14871   0.51520   0.208047  
         C         C         0.91744   0.13153   0.55813   -0.186812           
         C         C         0.95038   0.07960   0.53633   -0.119927           
         H         H         0.93565   0.15778   0.61450   0.109848  
         C         C         0.96262   0.98679   0.44361   -0.024054           
         C         C         0.92865   0.92577   0.45974   0.073745  
         C         C         0.88943   0.93391   0.35188   -0.131457           
         C         C         0.86019   0.87642   0.36328   -0.171286           
         C         C         0.86912   0.80767   0.48360   0.193657  
         H         H         0.88380   0.98538   0.25360   0.101774  
         H         H         0.83155   0.88549   0.27480   0.112507  
         H         H         0.96588   0.85290   0.16965   0.105873  
         C         C         0.07307   0.18132   0.75398   -0.170974           
         C         C         0.04755   0.12030   0.77181   -0.125182           
         H         H         0.06507   0.23212   0.65550   0.118144  
         H         H         0.01975   0.12397   0.68630   0.103782  
         C         C         0.03895   0.90226   0.81924   -0.121089           
         C         C         0.07186   0.84856   0.80439   -0.182630           
         H         H         0.99769   0.92018   0.76499   0.099711  
         H         H         0.05551   0.82617   0.73822   0.105884  
         C         C         0.86562   0.05685   0.93112   -0.129421           
         C         C         0.83076   0.10835   0.95047   -0.165330           
         H         H         0.84587   0.02664   0.88620   0.107962  
         H         H         0.78536   0.11836   0.91946   0.118777  
         C         C         0.91134   0.80073   0.09134   -0.157821           
         C         C         0.93804   0.85957   0.08165   -0.131935           
         H         H         0.91795   0.74824   0.18621   0.118867  
         H         H         0.99023   0.07110   0.07239   0.099270  
         C         C         0.05572   0.05405   0.89936   0.061979  
         C         C         0.09384   0.05046   0.00513   -0.131853           
         C         C         0.12135   0.11086   0.98575   -0.187475           
         C         C         0.11028   0.17758   0.86186   0.204415  
         H         H         0.09964   0.00108   0.10845   0.102419  
         H         H         0.14863   0.10767   0.07206   0.118300  
         C         C         0.02257   0.99181   0.91876   -0.021517           
         C         C         0.05853   0.93576   0.89868   0.064056  
         C         C         0.12681   0.82520   0.86849   0.197265  
         C         C         0.14825   0.86135   0.93955   -0.162311           
         C         C         0.11521   0.91548   0.95320   -0.134391           
         H         H         0.13352   0.94173   0.00900   0.110140  
         H         H         0.19135   0.84508   0.98528   0.118265  
         C         C         0.34366   0.49145   0.84507   0.163023  
         C         C         0.36561   0.46737   0.98676   -0.159258           
         C         C         0.42521   0.47050   0.00114   -0.125493           
         C         C         0.46466   0.49624   0.87351   0.065181  
         C         C         0.44218   0.51842   0.73211   -0.122722           
         C         C         0.38221   0.51724   0.71711   -0.159732           
         C         C         0.57105   0.48297   0.80180   -0.122647           
         C         C         0.52789   0.50049   0.88785   0.050342  
         C         C         0.54647   0.52234   0.98863   -0.124167           
         C         C         0.60584   0.52558   0.00504   -0.169592           
         C         C         0.64833   0.50629   0.92128   0.164105  
         C         C         0.63050   0.48586   0.81791   -0.171093           
         N         N         0.28110   0.49114   0.83474   -0.141603           
         C         C         0.24682   0.54948   0.83143   0.189737  
         C         C         0.27048   0.59634   0.87446   -0.198010           
         C         C         0.23737   0.65398   0.87103   -0.086389           
         C         C         0.17950   0.66805   0.82402   0.029890  
         C         C         0.15677   0.62260   0.77692   -0.109911           
         C         C         0.18951   0.56477   0.77966   -0.188797           
         C         C         0.29228   0.38639   0.79560   -0.197762           
         C         C         0.25755   0.42919   0.84562   0.190324  
         C         C         0.20046   0.40717   0.90935   -0.183344           
         C         C         0.17765   0.34826   0.91060   -0.094109           
         C         C         0.21121   0.30745   0.85360   0.031210  
         C         C         0.26949   0.32636   0.80126   -0.115747           
         C         C         0.71121   0.63471   0.84320   -0.183039           
         C         C         0.73328   0.56594   0.93846   0.184263  
         N         N         0.70923   0.50552   0.94401   -0.133222           
         C         C         0.77993   0.55807   0.02875   -0.189509           
         C         C         0.80471   0.61721   0.02094   -0.095764           
         C         C         0.78339   0.68641   0.92465   0.037235  
         C         C         0.73605   0.69376   0.83709   -0.109692           
         C         C         0.71885   0.37710   0.03615   -0.184597           
         C         C         0.74421   0.44457   0.96582   0.181932  
         C         C         0.80365   0.44961   0.91403   -0.186096           
         C         C         0.83549   0.38955   0.92534   -0.117315           
         C         C         0.80940   0.32301   0.98719   0.036278  
         C         C         0.75076   0.31766   0.04557   -0.089498           
         C         C         0.14342   0.72674   0.82410   0.070812  
         C         C         0.18713   0.24688   0.84935   0.073509  
         C         C         0.80807   0.74912   0.91642   0.067403  
         C         C         0.84219   0.26344   0.98180   0.070658  
         N         N         0.16289   0.76997   0.86594   -0.317430           
         N         N         0.81823   0.20420   0.01457   -0.299349           
         N         N         0.85161   0.74524   0.99454   -0.308852           
         N         N         0.13141   0.24010   0.85120   -0.289423           
         H         H         0.33482   0.44763   0.08446   0.111187  
         H         H         0.44138   0.45252   0.11223   0.105420  
         H         H         0.47189   0.53825   0.63208   0.101126  
         H         H         0.36593   0.53626   0.60590   0.114972  
         H         H         0.55799   0.46659   0.72187   0.108324  
         H         H         0.51387   0.53679   0.05533   0.103698  
         H         H         0.61950   0.54186   0.08452   0.118121  
         H         H         0.66348   0.47158   0.75178   0.117572  
         H         H         0.31489   0.58681   0.91160   0.114433  
         H         H         0.25516   0.68892   0.90754   0.111267  
         H         H         0.11298   0.63399   0.73445   0.111461  
         H         H         0.17154   0.53255   0.73693   0.120443  
         H         H         0.33694   0.40097   0.75100   0.109214  
         H         H         0.17451   0.43604   0.95936   0.123230  
         H         H         0.13367   0.33153   0.95945   0.113509  
         H         H         0.29672   0.29428   0.76063   0.103632  
         H         H         0.67523   0.64115   0.77356   0.123809  
         H         H         0.79551   0.50483   0.10608   0.112015  
         H         H         0.84028   0.61187   0.09114   0.112551  
         H         H         0.71930   0.74688   0.76144   0.109349  
         H         H         0.67352   0.37284   0.08029   0.122220  
         H         H         0.82403   0.50094   0.86151   0.122304  
         H         H         0.88093   0.39439   0.88082   0.111544  
         H         H         0.73112   0.26580   0.09705   0.116101  
         H         H         0.09843   0.73089   0.78926   0.067280  
         H         H         0.21918   0.20759   0.84185   0.070561  
         H         H         0.78668   0.80007   0.84079   0.065876  
         H         H         0.88846   0.27269   0.94057   0.067708  
         C         C         0.92526   0.04412   0.96640   0.060306  
         C         C         0.85402   0.15050   0.00491   0.205813  
         C         C         0.91212   0.13516   0.05013   -0.185323           
         C         C         0.94639   0.08317   0.03195   -0.122777           
         H         H         0.92929   0.16289   0.10472   0.110591  
         C         C         0.96246   0.98932   0.94468   -0.025575           
         C         C         0.93039   0.92741   0.95888   0.076282  
         C         C         0.89328   0.93436   0.84795   -0.135520           
         C         C         0.86642   0.87594   0.85679   -0.172747           
         C         C         0.87500   0.80763   0.97887   0.191203  
         H         H         0.88788   0.98558   0.74903   0.101307  
         H         H         0.84105   0.88337   0.76379   0.110035 

