
##########################################################################
#               Crystallographic Information Format file
#               Produced by PyCifRW module
#
#  This is a CIF file.  CIF has been adopted by the International
#  Union of Crystallography as the standard for data archiving and
#  transmission.
#
#  For information on this file format, follow the CIF links at
#  http://www.iucr.org
##########################################################################

data_image0

_cell_length_a                          15.461
_cell_length_b                          15.916
_cell_length_c                          9.48908
_cell_angle_alpha                       91.9009
_cell_angle_beta                        88.5841
_cell_angle_gamma                       87.2251
_symmetry_space_group_name_H-M          'P 1'
_space_group_name_Hall                  'P 1'
loop_
  _atom_site_type_symbol
  _atom_site_label
  _atom_site_fract_x
  _atom_site_fract_y
  _atom_site_fract_z
  _atom_site_charge
         C         C         0.27164   0.47932   0.03050   -0.152968           
         C         C         0.72811   0.52500   0.04482   -0.153336           
         C         C         0.32629   0.40799   0.05225   0.064541  
         C         C         0.67138   0.59662   0.06071   0.064728  
         C         C         0.41498   0.41806   0.07097   -0.161875           
         C         C         0.58199   0.58670   0.07389   -0.161708           
         C         C         0.45155   0.49731   0.06064   0.068173  
         C         C         0.54676   0.50654   0.06535   0.070201  
         C         C         0.39554   0.56699   0.03777   -0.140791           
         C         C         0.60484   0.43639   0.05157   -0.142013           
         C         C         0.30578   0.55893   0.02550   0.061835  
         C         C         0.69504   0.44485   0.04227   0.062877  
         H         H         0.20291   0.47094   0.01651   0.113059  
         H         H         0.79724   0.53372   0.03250   0.114196  
         H         H         0.45605   0.36256   0.09149   0.111358  
         H         H         0.53966   0.64320   0.08677   0.110791  
         H         H         0.41930   0.62966   0.02635   0.110140  
         H         H         0.58260   0.37272   0.04365   0.109637  
         C         C         0.24765   0.63295   0.00770   0.076795  
         C         C         0.75416   0.37031   0.02593   0.076824  
         N         N         0.27558   0.70756   0.99445   -0.285945           
         N         N         0.72627   0.29520   0.02110   -0.281371           
         N         N         0.21425   0.31182   0.00986   -0.286612           
         N         N         0.78286   0.69179   0.01355   -0.283680           
         C         C         0.29256   0.32344   0.04761   0.072256  
         C         C         0.70415   0.68134   0.05502   0.070306  
         H         H         0.17810   0.62120   0.00709   0.070034  
         H         H         0.82363   0.38179   0.01564   0.070972  
         H         H         0.33869   0.27124   0.07094   0.067515  
         H         H         0.65752   0.73421   0.08226   0.068663  
         C         C         0.95545   0.00110   0.99324   -0.027127           
         C         C         0.04492   -0.00005  0.98951   -0.028717           
         C         C         0.89914   0.07957   0.00157   0.056458  
         C         C         0.82307   0.08428   0.92246   -0.123200           
         C         C         0.76708   0.15539   0.92919   -0.167219           
         C         C         0.78545   0.22579   0.01494   0.203242  
         C         C         0.86053   0.22142   0.09616   -0.182003           
         C         C         0.91549   0.14962   0.08938   -0.114996           
         H         H         0.97301   0.14760   0.15240   0.102518  
         H         H         0.80841   0.03109   0.85379   0.103260  
         H         H         0.70928   0.15872   0.86629   0.122858  
         H         H         0.87342   0.27337   0.16877   0.114177  
         C         C         0.10142   0.92187   0.99113   0.057309  
         C         C         0.17835   0.91554   0.90737   -0.123505           
         C         C         0.23476   0.84485   0.90833   -0.165615           
         C         C         0.21588   0.77658   0.99270   0.200875  
         C         C         0.14014   0.78307   0.07915   -0.179809           
         C         C         0.08458   0.85426   0.07785   -0.116085           
         H         H         0.02738   0.85896   0.14669   0.101506  
         H         H         0.19388   0.96745   0.84100   0.103781  
         H         H         0.29340   0.84049   0.84227   0.122885  
         H         H         0.12777   0.73375   0.15272   0.113691  
         C         C         0.09367   0.07825   0.98682   0.060593  
         C         C         0.16379   0.08848   0.07711   -0.120933           
         C         C         0.20650   0.16341   0.08552   -0.177782           
         C         C         0.18053   0.23172   0.00277   0.195373  
         C         C         0.11261   0.22057   0.90863   -0.156910           
         C         C         0.07143   0.14513   0.89963   -0.119408           
         H         H         0.18269   0.03737   0.14507   0.103858  
         H         H         0.25736   0.17031   0.16158   0.114158  
         H         H         0.09358   0.27254   0.84278   0.122012  
         H         H         0.01917   0.13750   0.82690   0.099693  
         C         C         0.90623   0.92301   0.99161   0.062197  
         C         C         0.83669   0.91527   0.08860   -0.122767           
         C         C         0.79294   0.84113   0.09716   -0.176259           
         C         C         0.81708   0.77138   0.00687   0.197130  
         C         C         0.88398   0.78009   0.90571   -0.155192           
         C         C         0.92671   0.85448   0.89772   -0.123032           
         H         H         0.81877   0.96806   0.16079   0.102129  
         H         H         0.74258   0.83593   0.17801   0.112508  
         H         H         0.90049   0.72716   0.83321   0.121764  
         H         H         0.97822   0.85991   0.81945   0.100892  
         C         C         0.27020   0.47697   0.51476   -0.152249           
         C         C         0.72817   0.52089   0.53348   -0.152867           
         C         C         0.32592   0.40544   0.52888   0.064080  
         C         C         0.67184   0.59300   0.53821   0.064362  
         C         C         0.41513   0.41509   0.54009   -0.161143           
         C         C         0.58211   0.58392   0.54354   -0.160590           
         C         C         0.45117   0.49470   0.53275   0.069396  
         C         C         0.54642   0.50391   0.53720   0.070701  
         C         C         0.39419   0.56456   0.51674   -0.142764           
         C         C         0.60417   0.43331   0.53064   -0.143695           
         C         C         0.30411   0.55656   0.50929   0.061578  
         C         C         0.69450   0.44104   0.53065   0.063741  
         H         H         0.20101   0.46877   0.50647   0.113430  
         H         H         0.79767   0.52907   0.53125   0.113429  
         H         H         0.45664   0.35884   0.55310   0.110512  
         H         H         0.54003   0.64079   0.55072   0.110019  
         H         H         0.41743   0.62758   0.50834   0.109541  
         H         H         0.58188   0.36965   0.52312   0.108993  
         C         C         0.24550   0.63077   0.49640   0.075634  
         C         C         0.75343   0.36611   0.52379   0.076256  
         N         N         0.27380   0.70506   0.48208   -0.281146           
         N         N         0.72512   0.29116   0.51665   -0.282413           
         N         N         0.21216   0.31021   0.49877   -0.284920           
         N         N         0.78694   0.68556   0.50031   -0.284527           
         C         C         0.29236   0.32094   0.52544   0.070063  
         C         C         0.70611   0.67697   0.53111   0.071487  
         H         H         0.17577   0.61952   0.49972   0.071761  
         H         H         0.82313   0.37750   0.52148   0.071042  
         H         H         0.33951   0.26815   0.54063   0.068070  
         H         H         0.65920   0.73090   0.54792   0.067703  
         C         C         0.95522   0.99758   0.49051   -0.029229           
         C         C         0.04458   -0.00154  0.48656   -0.028838           
         C         C         0.89727   0.07503   0.50025   0.058316  
         C         C         0.82108   0.07977   0.42132   -0.125578           
         C         C         0.76526   0.15101   0.42817   -0.163996           
         C         C         0.78373   0.22127   0.51422   0.201469  
         C         C         0.85790   0.21619   0.59764   -0.179106           
         C         C         0.91307   0.14449   0.58995   -0.113970           
         H         H         0.97010   0.14180   0.65421   0.101256  
         H         H         0.80564   0.02645   0.35351   0.102421  
         H         H         0.70759   0.15470   0.36481   0.122389  
         H         H         0.87032   0.26752   0.67190   0.114399  
         C         C         0.10227   0.92112   0.48845   0.056924  
         C         C         0.17560   0.91260   0.39679   -0.123458           
         C         C         0.23123   0.84129   0.39495   -0.164690           
         C         C         0.21509   0.77486   0.48484   0.200962  
         C         C         0.14332   0.78374   0.57986   -0.180969           
         C         C         0.08868   0.85569   0.58106   -0.114093           
         H         H         0.03386   0.86200   0.65481   0.098746  
         H         H         0.18810   0.96278   0.32508   0.102026  
         H         H         0.28642   0.83457   0.32143   0.123622  
         H         H         0.13297   0.73546   0.65625   0.114924  
         C         C         0.09193   0.07714   0.48220   0.060385  
         C         C         0.16386   0.08713   0.56871   -0.122042           
         C         C         0.20612   0.16231   0.57547   -0.178235           
         C         C         0.17794   0.23051   0.49423   0.196421  
         C         C         0.10755   0.21996   0.40486   -0.156229           
         C         C         0.06656   0.14448   0.39786   -0.120888           
         H         H         0.18458   0.03562   0.63463   0.105658  
         H         H         0.25844   0.16957   0.64873   0.114725  
         H         H         0.08723   0.27235   0.34070   0.121573  
         H         H         0.01243   0.13705   0.32877   0.101207  
         C         C         0.90885   0.91802   0.48746   0.061032  
         C         C         0.83593   0.90982   0.57721   -0.122855           
         C         C         0.79337   0.83487   0.58244   -0.180732           
         C         C         0.82213   0.76472   0.49625   0.197639  
         C         C         0.89432   0.77288   0.40496   -0.158565           
         C         C         0.93574   0.84806   0.40006   -0.118537           
         H         H         0.81468   0.96279   0.64692   0.105014  
         H         H         0.74031   0.82928   0.65839   0.113432  
         H         H         0.91620   0.71906   0.33755   0.121694  
         H         H         0.99191   0.85269   0.33059   0.101381 

