
##########################################################################
#               Crystallographic Information Format file
#               Produced by PyCifRW module
#
#  This is a CIF file.  CIF has been adopted by the International
#  Union of Crystallography as the standard for data archiving and
#  transmission.
#
#  For information on this file format, follow the CIF links at
#  http://www.iucr.org
##########################################################################

data_image0

_cell_length_a                          31.4001
_cell_length_b                          33.7857
_cell_length_c                          7.8301
_cell_angle_alpha                       121.595
_cell_angle_beta                        108.545
_cell_angle_gamma                       65.3023
_symmetry_space_group_name_H-M          'P 1'
_space_group_name_Hall                  'P 1'
loop_
  _atom_site_type_symbol
  _atom_site_label
  _atom_site_fract_x
  _atom_site_fract_y
  _atom_site_fract_z
  _atom_site_charge
         C         C         0.34181   0.31048   0.24961   0.031390  
         C         C         0.38839   0.30815   0.25121   0.030192  
         C         C         0.42727   0.26670   0.25268   -0.229589           
         C         C         0.41837   0.22914   0.24526   0.170588  
         C         C         0.37225   0.23101   0.23452   0.182224  
         C         C         0.33405   0.27058   0.23706   -0.225253           
         C         C         0.67859   0.69210   0.21825   0.027396  
         C         C         0.63554   0.68580   0.20957   0.031881  
         C         C         0.59178   0.72179   0.20005   -0.230097           
         C         C         0.59203   0.76182   0.19733   0.173254  
         C         C         0.63397   0.76844   0.20585   0.176818  
         C         C         0.67720   0.73468   0.21752   -0.228711           
         O         O         0.37290   0.18860   0.22283   -0.341496           
         O         O         0.62296   0.81192   0.19892   -0.344122           
         B         B         0.42088   0.16053   0.22943   0.583057  
         B         B         0.57329   0.83127   0.18656   0.582779  
         O         O         0.44957   0.18527   0.24379   -0.339482           
         O         O         0.55381   0.80012   0.18307   -0.340757           
         C         C         0.30174   0.35339   0.25759   0.031399  
         C         C         0.72347   0.65479   0.22919   0.025079  
         C         C         0.30800   0.39199   0.25125   0.031468  
         C         C         0.72374   0.61247   0.23052   0.028501  
         C         C         0.25646   0.35694   0.27454   -0.228114           
         C         C         0.76701   0.65993   0.23787   -0.233816           
         C         C         0.21920   0.39711   0.27588   0.173181  
         C         C         0.80833   0.62383   0.24878   0.173774  
         C         C         0.22480   0.43438   0.26313   0.165937  
         C         C         0.80834   0.58313   0.25443   0.177743  
         C         C         0.26828   0.43294   0.25171   -0.227386           
         C         C         0.76733   0.57674   0.24660   -0.231113           
         H         H         0.46331   0.26395   0.25817   0.135918  
         H         H         0.55834   0.71829   0.19175   0.134535  
         H         H         0.29902   0.27047   0.22930   0.137412  
         H         H         0.70908   0.74047   0.22196   0.134285  
         H         H         0.25068   0.32970   0.29087   0.135012  
         H         H         0.76817   0.69119   0.23488   0.136112  
         H         H         0.27139   0.46271   0.24403   0.135277  
         H         H         0.76902   0.54496   0.25389   0.134968  
         H         H         0.33272   0.46007   0.24647   0.136414  
         H         H         0.71242   0.53405   0.21648   0.133879  
         H         H         0.47197   0.31581   0.24671   0.135475  
         H         H         0.55901   0.66420   0.19776   0.134216  
         C         C         0.43661   0.11051   0.22601   -0.233888           
         C         C         0.54279   0.88119   0.19537   -0.225484           
         C         C         0.40220   0.09566   0.23808   -0.063649           
         C         C         0.56090   0.91194   0.18764   -0.121233           
         C         C         0.41386   0.05204   0.24647   -0.132809           
         C         C         0.53145   0.95809   0.21249   0.039117  
         C         C         0.48397   0.07968   0.21823   -0.097433           
         C         C         0.49753   0.90074   0.25435   -0.113159           
         C         C         0.49597   0.03646   0.22920   0.044750  
         C         C         0.46851   0.94893   0.29763   0.067805  
         C         C         0.46113   0.02248   0.24520   0.036363  
         C         C         0.48384   0.97531   0.24988   -0.017693           
         C         C         0.54415   0.00063   0.24828   -0.064106           
         C         C         0.43284   0.97295   0.44248   -0.221363           
         H         H         0.36571   0.11939   0.24402   0.109202  
         H         H         0.51082   0.09057   0.20807   0.117181  
         H         H         0.56771   0.99119   0.14593   0.088789  
         H         H         0.59759   0.89971   0.16493   0.107725  
         H         H         0.48598   0.87867   0.28232   0.106958  
         H         H         0.41873   0.94586   0.42281   0.110694  
         O         O         0.18127   0.47014   0.26797   -0.335557           
         O         O         0.85416   0.55289   0.26715   -0.336021           
         B         B         0.14951   0.45333   0.28639   0.588443  
         B         B         0.88232   0.57596   0.26676   0.590705  
         O         O         0.17253   0.40829   0.29210   -0.335001           
         O         O         0.85463   0.61999   0.25529   -0.340676           
         C         C         0.39525   0.34834   0.25061   0.030184  
         C         C         0.35534   0.38945   0.24845   0.028167  
         C         C         0.36197   0.42836   0.24752   -0.219226           
         C         C         0.40679   0.42520   0.24524   0.168415  
         C         C         0.44577   0.38475   0.24344   0.174688  
         C         C         0.44104   0.34654   0.24756   -0.224561           
         C         C         0.63596   0.64242   0.20817   0.031695  
         C         C         0.67963   0.60568   0.21592   0.027251  
         C         C         0.67997   0.56279   0.21041   -0.234295           
         C         C         0.63762   0.55863   0.20172   0.183435  
         C         C         0.59486   0.59539   0.19935   0.178364  
         C         C         0.59290   0.63675   0.19984   -0.229287           
         O         O         0.48608   0.39100   0.23698   -0.342323           
         O         O         0.55823   0.58265   0.19765   -0.341731           
         B         B         0.47037   0.43666   0.23703   0.584997  
         B         B         0.57983   0.53719   0.20104   0.580842  
         O         O         0.42132   0.45807   0.24184   -0.340136           
         O         O         0.62892   0.52134   0.19931   -0.342264           
         H         H         0.38650   0.04157   0.25483   0.110314  
         H         H         0.40298   0.00300   0.42461   0.100323  
         H         H         0.65926   0.94616   0.21425   0.000731  
         H         H         0.64894   0.93307   0.11116   0.011929  
         C         C         0.50038   0.46132   0.22711   -0.207397           
         C         C         0.54956   0.44041   0.22164   -0.064521           
         C         C         0.55255   0.50960   0.20805   -0.221818           
         C         C         0.50336   0.53042   0.21356   -0.052555           
         H         H         0.56750   0.40546   0.22580   0.105468  
         H         H         0.48549   0.56524   0.20848   0.109660  
         C         C         0.47777   0.50677   0.22333   -0.075143           
         C         C         0.57527   0.46425   0.21282   -0.055352           
         H         H         0.43982   0.52337   0.22837   0.107709  
         H         H         0.61335   0.44799   0.21072   0.106117  
         C         C         0.93582   0.55406   0.27693   -0.310338           
         C         C         0.09686   0.47949   0.29511   -0.323268           
         S         S         0.97128   0.58111   0.26848   0.178846  
         S         S         0.06140   0.45331   0.31028   0.183224  
         C         C         0.02194   0.53468   0.28378   -0.024857           
         C         C         0.07062   0.52287   0.28146   -0.108204           
         C         C         0.01093   0.49991   0.29712   -0.027457           
         C         C         0.96208   0.51098   0.29329   -0.132164           
         H         H         0.94587   0.48889   0.29819   0.141099  
         H         H         0.08657   0.54414   0.26932   0.141673  
         C         C         0.32367   0.30804   0.74928   0.025840  
         C         C         0.36617   0.31398   0.74937   0.031698  
         C         C         0.40996   0.27696   0.74646   -0.229873           
         C         C         0.41036   0.23622   0.74575   0.173051  
         C         C         0.36895   0.22974   0.74379   0.177078  
         C         C         0.32563   0.26447   0.74357   -0.227897           
         C         C         0.66007   0.68909   0.71042   0.032386  
         C         C         0.61316   0.69081   0.70073   0.028028  
         C         C         0.57424   0.73113   0.68846   -0.225351           
         C         C         0.58328   0.76827   0.69303   0.168387  
         C         C         0.62958   0.76701   0.71088   0.181569  
         C         C         0.66788   0.72843   0.71835   -0.221138           
         O         O         0.38046   0.18526   0.74315   -0.343844           
         O         O         0.62901   0.80887   0.71798   -0.342459           
         B         B         0.42993   0.16519   0.74481   0.582316  
         B         B         0.58089   0.83586   0.70057   0.581153  
         O         O         0.44882   0.19679   0.74835   -0.341384           
         O         O         0.55207   0.81108   0.68461   -0.337874           
         C         C         0.27887   0.34692   0.75515   0.025944  
         C         C         0.70037   0.64769   0.71781   0.030812  
         C         C         0.27803   0.38973   0.75584   0.029111  
         C         C         0.69359   0.60941   0.72454   0.030029  
         C         C         0.23606   0.34300   0.76222   -0.232536           
         C         C         0.74653   0.64554   0.71810   -0.228231           
         C         C         0.19486   0.38061   0.76771   0.173400  
         C         C         0.78388   0.60705   0.73313   0.172625  
         C         C         0.19424   0.42187   0.76453   0.176296  
         C         C         0.77757   0.57013   0.74576   0.167398  
         C         C         0.23455   0.42725   0.75880   -0.232318           
         C         C         0.73338   0.57023   0.74107   -0.228505           
         H         H         0.44290   0.28012   0.74668   0.134175  
         H         H         0.53804   0.73328   0.67655   0.136045  
         H         H         0.29413   0.25851   0.74216   0.134721  
         H         H         0.70299   0.72891   0.72988   0.136022  
         H         H         0.23543   0.31161   0.76594   0.135660  
         H         H         0.75305   0.67273   0.70418   0.133646  
         H         H         0.23243   0.45980   0.75625   0.135636  
         H         H         0.72983   0.54094   0.75078   0.134793  
         H         H         0.28788   0.46703   0.75501   0.132403  
         H         H         0.66797   0.54062   0.71970   0.136801  
         H         H         0.44161   0.33546   0.74979   0.133314  
         H         H         0.52888   0.68284   0.69601   0.136739  
         C         C         0.46040   0.11455   0.72868   -0.225473           
         C         C         0.56523   0.88507   0.69697   -0.230549           
         C         C         0.44217   0.08378   0.73570   -0.121546           
         C         C         0.59987   0.89945   0.68377   -0.062939           
         C         C         0.47133   0.03734   0.70789   0.036839  
         C         C         0.58853   0.94271   0.67285   -0.135061           
         C         C         0.50543   0.09468   0.66719   -0.111210           
         C         C         0.51791   0.91594   0.70247   -0.100714           
         C         C         0.53426   0.04633   0.62228   0.064894  
         C         C         0.50633   0.95900   0.69102   0.046297  
         C         C         0.51891   0.01986   0.66966   -0.015339           
         C         C         0.54140   0.97264   0.67447   0.035716  
         C         C         0.56978   0.02253   0.47685   -0.216288           
         C         C         0.45830   0.99494   0.67149   -0.062497           
         H         H         0.40560   0.09626   0.76038   0.106392  
         H         H         0.51714   0.11671   0.63956   0.105110  
         H         H         0.58356   0.04985   0.49639   0.109011  
         H         H         0.63631   0.87561   0.67916   0.108709  
         H         H         0.49071   0.90533   0.71179   0.119089  
         H         H         0.43454   0.00457   0.77343   0.089323  
         O         O         0.14872   0.45384   0.77061   -0.335875           
         O         O         0.82133   0.53631   0.76046   -0.336109           
         B         B         0.12135   0.43113   0.77909   0.588560  
         B         B         0.85406   0.55391   0.75428   0.590657  
         O         O         0.14927   0.38580   0.77833   -0.337957           
         O         O         0.83140   0.59755   0.73659   -0.336978           
         C         C         0.36517   0.35786   0.75293   0.033331  
         C         C         0.32147   0.39539   0.75497   0.024763  
         C         C         0.32053   0.43813   0.75710   -0.232456           
         C         C         0.36237   0.44187   0.75684   0.183130  
         C         C         0.40517   0.40469   0.75312   0.178865  
         C         C         0.40766   0.36322   0.75314   -0.228892           
         C         C         0.60592   0.65106   0.70336   0.030320  
         C         C         0.64579   0.61079   0.71414   0.031876  
         C         C         0.63880   0.57187   0.71339   -0.221220           
         C         C         0.59365   0.57448   0.70805   0.167962  
         C         C         0.55470   0.61449   0.70460   0.173244  
         C         C         0.55978   0.65251   0.70016   -0.226153           
         O         O         0.44135   0.41712   0.74890   -0.342566           
         O         O         0.51408   0.60803   0.70689   -0.342688           
         B         B         0.41946   0.46282   0.74769   0.580558  
         B         B         0.52956   0.56262   0.70896   0.590546  
         O         O         0.37063   0.47906   0.75622   -0.341373           
         O         O         0.57877   0.54156   0.70942   -0.341630           
         H         H         0.34777   0.06284   0.76016   0.014344  
         H         H         0.34374   0.04749   0.65166   0.001733  
         H         H         0.61611   0.95257   0.66249   0.111559  
         H         H         0.59986   0.99254   0.49413   0.100332  
         C         C         0.44661   0.49013   0.73761   -0.220632           
         C         C         0.49575   0.46901   0.73048   -0.055137           
         C         C         0.49916   0.53799   0.71698   -0.211992           
         C         C         0.44997   0.55904   0.72280   -0.063214           
         H         H         0.51351   0.43418   0.73553   0.110589  
         H         H         0.43209   0.59398   0.71853   0.105963  
         C         C         0.42412   0.53547   0.73269   -0.055266           
         C         C         0.52149   0.49244   0.72018   -0.074245           
         H         H         0.38609   0.55199   0.73602   0.106116  
         H         H         0.55940   0.47557   0.71447   0.107448  
         C         C         0.90720   0.52940   0.76404   -0.321991           
         C         C         0.06823   0.45447   0.78389   -0.312125           
         S         S         0.94304   0.55578   0.75280   0.183355  
         S         S         0.03266   0.42787   0.79465   0.179019  
         C         C         0.99335   0.50944   0.76926   -0.027191           
         C         C         0.04215   0.49799   0.77088   -0.129880           
         C         C         0.98212   0.47476   0.78228   -0.023845           
         C         C         0.93327   0.48640   0.78113   -0.110635           
         H         H         0.91707   0.46497   0.79077   0.142574  
         H         H         0.05839   0.51984   0.76452   0.139661 

