
##########################################################################
#               Crystallographic Information Format file
#               Produced by PyCifRW module
#
#  This is a CIF file.  CIF has been adopted by the International
#  Union of Crystallography as the standard for data archiving and
#  transmission.
#
#  For information on this file format, follow the CIF links at
#  http://www.iucr.org
##########################################################################

data_image0

_cell_length_a                          31.6168
_cell_length_b                          30.2388
_cell_length_c                          7.96979
_cell_angle_alpha                       119.392
_cell_angle_beta                        85.7216
_cell_angle_gamma                       116.202
_symmetry_space_group_name_H-M          'P 1'
_space_group_name_Hall                  'P 1'
loop_
  _atom_site_type_symbol
  _atom_site_label
  _atom_site_fract_x
  _atom_site_fract_y
  _atom_site_fract_z
  _atom_site_charge
         C         C         0.52980   0.49054   0.25829   0.032266  
         C         C         0.52948   0.53744   0.25725   0.025380  
         C         C         0.57272   0.58091   0.25597   -0.227794           
         C         C         0.61408   0.57649   0.25657   0.172576  
         C         C         0.61444   0.53069   0.25888   0.172590  
         C         C         0.57350   0.48781   0.25999   -0.231695           
         O         O         0.66048   0.53658   0.25621   -0.339180           
         B         B         0.68803   0.58703   0.25044   0.588846  
         O         O         0.65980   0.61234   0.25119   -0.340065           
         C         C         0.48534   0.44532   0.25598   0.029694  
         C         C         0.44139   0.44814   0.25518   0.026498  
         C         C         0.48559   0.39799   0.25152   -0.216483           
         C         C         0.44313   0.35591   0.24761   0.179513  
         C         C         0.40000   0.35844   0.24715   0.173131  
         C         C         0.39816   0.40341   0.25015   -0.225511           
         O         O         0.36340   0.31060   0.24406   -0.349082           
         B         B         0.38593   0.27940   0.24394   0.588607  
         O         O         0.43500   0.30672   0.24425   -0.322011           
         C         C         0.48472   0.54054   0.25690   0.029943  
         C         C         0.44120   0.49668   0.25769   0.031594  
         C         C         0.39783   0.50025   0.25894   -0.231467           
         C         C         0.39901   0.54620   0.25860   0.174656  
         C         C         0.44163   0.58878   0.25667   0.181498  
         C         C         0.48428   0.58714   0.25635   -0.217896           
         O         O         0.43268   0.62870   0.25050   -0.324065           
         B         B         0.38359   0.60999   0.25037   0.598577  
         O         O         0.36191   0.55875   0.25535   -0.349339           
         H         H         0.57366   0.61665   0.25198   0.135679  
         H         H         0.57530   0.45324   0.26312   0.135687  
         H         H         0.51806   0.39414   0.25148   0.139365  
         H         H         0.36410   0.40385   0.24884   0.135048  
         H         H         0.36441   0.46779   0.26070   0.132803  
         H         H         0.51608   0.62069   0.25133   0.138213  
         C         C         0.12977   0.85109   0.24147   0.030986  
         C         C         0.12943   0.80439   0.24764   0.027770  
         C         C         0.08568   0.76145   0.24858   -0.229991           
         C         C         0.04453   0.76594   0.24233   0.172607  
         C         C         0.04486   0.81152   0.23605   0.173476  
         C         C         0.08626   0.85387   0.23457   -0.232846           
         O         O         0.99892   0.80598   0.23517   -0.340379           
         B         B         0.97061   0.75574   0.24162   0.588783  
         O         O         0.99846   0.73050   0.24612   -0.340042           
         C         C         0.17468   0.89628   0.24576   0.029263  
         C         C         0.21831   0.89372   0.25783   0.026842  
         C         C         0.17557   0.94319   0.24165   -0.223666           
         C         C         0.21892   0.98501   0.24895   0.177393  
         C         C         0.26156   0.98232   0.26172   0.173217  
         C         C         0.26233   0.93814   0.26776   -0.218473           
         O         O         0.29953   0.02867   0.26376   -0.323863           
         B         B         0.27917   0.06003   0.25170   0.588019  
         O         O         0.22920   0.03395   0.24423   -0.346893           
         C         C         0.17395   0.80110   0.25453   0.029361  
         C         C         0.21781   0.84544   0.25897   0.031111  
         C         C         0.26119   0.84260   0.26455   -0.225464           
         C         C         0.25972   0.79691   0.26684   0.173397  
         C         C         0.21692   0.75322   0.26207   0.175370  
         C         C         0.17403   0.75421   0.25551   -0.223703           
         O         O         0.22666   0.71304   0.26491   -0.347097           
         B         B         0.27650   0.73396   0.27146   0.596390  
         O         O         0.29726   0.78581   0.27329   -0.323015           
         H         H         0.08420   0.72627   0.25842   0.134523  
         H         H         0.08501   0.88813   0.22696   0.133742  
         H         H         0.14316   0.94636   0.23072   0.134200  
         H         H         0.29632   0.93823   0.27872   0.142114  
         H         H         0.29512   0.87482   0.26501   0.141207  
         H         H         0.14151   0.72010   0.25406   0.134455  
         C         C         0.91652   0.73119   0.24179   -0.230929           
         C         C         0.84216   0.73699   0.23588   -0.136216           
         C         C         0.89169   0.68061   0.24538   -0.100161           
         C         C         0.89074   0.75930   0.23691   -0.062125           
         C         C         0.84179   0.65670   0.24539   0.075493  
         H         H         0.82252   0.75813   0.22927   0.110264  
         H         H         0.91094   0.65892   0.25069   0.107854  
         H         H         0.90984   0.79835   0.23079   0.107876  
         C         C         0.74185   0.61134   0.24607   -0.231457           
         C         C         0.81605   0.60525   0.25035   -0.139083           
         C         C         0.76657   0.66175   0.24151   -0.101309           
         C         C         0.76750   0.58299   0.24990   -0.057096           
         C         C         0.81640   0.68549   0.24031   0.075635  
         H         H         0.83567   0.58419   0.25753   0.110561  
         H         H         0.74747   0.68373   0.23730   0.108502  
         H         H         0.74830   0.54390   0.25596   0.107597  
         C         C         0.30434   0.70277   0.26776   -0.262308           
         C         C         0.30810   0.62240   0.26305   -0.050831           
         C         C         0.35393   0.72366   0.25275   0.172650  
         C         C         0.28277   0.65186   0.27055   -0.056082           
         C         C         0.37960   0.69284   0.24061   0.160367  
         N         N         0.38149   0.77179   0.24539   -0.339022           
         S         S         0.43413   0.77501   0.22269   0.445121  
         N         N         0.42582   0.71771   0.22096   -0.356756           
         H         H         0.28915   0.58354   0.27068   0.112031  
         H         H         0.24496   0.63415   0.28116   0.112446  
         C         C         0.35647   0.64146   0.24916   -0.262475           
         C         C         0.30741   0.11584   0.24748   -0.259125           
         C         C         0.35960   0.22287   0.24501   -0.261248           
         C         C         0.28504   0.14577   0.24068   -0.060037           
         C         C         0.38377   0.19297   0.24919   0.169966  
         C         C         0.31030   0.19772   0.24043   -0.051313           
         C         C         0.35795   0.14000   0.25107   0.175392  
         N         N         0.43126   0.20943   0.25087   -0.346837           
         S         S         0.44006   0.16102   0.25548   0.439306  
         N         N         0.38636   0.11754   0.25555   -0.341501           
         H         H         0.24646   0.12835   0.23509   0.113686  
         H         H         0.29051   0.21892   0.23543   0.113772  
         C         C         0.52929   0.48975   0.75737   0.030201  
         C         C         0.52930   0.53693   0.75685   0.028238  
         C         C         0.57276   0.58029   0.75619   -0.230236           
         C         C         0.61397   0.57561   0.75770   0.175118  
         C         C         0.61403   0.52968   0.76010   0.172180  
         C         C         0.57283   0.48665   0.75928   -0.230770           
         O         O         0.66009   0.53548   0.75852   -0.339503           
         B         B         0.68788   0.58575   0.75177   0.589072  
         O         O         0.65979   0.61113   0.75166   -0.340667           
         C         C         0.48465   0.44488   0.75586   0.028904  
         C         C         0.44096   0.44840   0.75677   0.028058  
         C         C         0.48435   0.39737   0.75216   -0.217188           
         C         C         0.44172   0.35601   0.75069   0.180897  
         C         C         0.39889   0.35930   0.75210   0.171104  
         C         C         0.39758   0.40452   0.75510   -0.225220           
         O         O         0.36204   0.31173   0.74963   -0.348545           
         B         B         0.38401   0.27974   0.74698   0.588304  
         O         O         0.43314   0.30669   0.74727   -0.322708           
         C         C         0.48469   0.54039   0.75633   0.028619  
         C         C         0.44104   0.49690   0.75817   0.033238  
         C         C         0.39784   0.50092   0.75996   -0.234401           
         C         C         0.39944   0.54694   0.75880   0.173683  
         C         C         0.44210   0.58906   0.75500   0.184245  
         C         C         0.48461   0.58704   0.75480   -0.218820           
         O         O         0.43332   0.62913   0.74908   -0.325811           
         B         B         0.38431   0.61086   0.75049   0.597639  
         O         O         0.36253   0.55987   0.75699   -0.347477           
         H         H         0.57401   0.61608   0.75144   0.135881  
         H         H         0.57441   0.45172   0.76069   0.136045  
         H         H         0.51636   0.39249   0.75055   0.140194  
         H         H         0.36396   0.40611   0.75686   0.134331  
         H         H         0.36410   0.46915   0.76315   0.134654  
         H         H         0.51668   0.62040   0.75024   0.138704  
         C         C         0.12917   0.85073   0.74255   0.030447  
         C         C         0.12907   0.80399   0.74751   0.027319  
         C         C         0.08529   0.76076   0.74671   -0.229361           
         C         C         0.04414   0.76537   0.74269   0.171631  
         C         C         0.04425   0.81100   0.73751   0.172066  
         C         C         0.08559   0.85350   0.73685   -0.233070           
         O         O         0.99825   0.80528   0.73686   -0.338992           
         B         B         0.97026   0.75507   0.74366   0.587915  
         O         O         0.99820   0.72988   0.74738   -0.338813           
         C         C         0.17389   0.89577   0.74551   0.028946  
         C         C         0.21769   0.89371   0.75885   0.027741  
         C         C         0.17429   0.94209   0.73886   -0.224864           
         C         C         0.21744   0.98430   0.74711   0.178751  
         C         C         0.26033   0.98236   0.76280   0.173235  
         C         C         0.26153   0.93860   0.77040   -0.220241           
         O         O         0.29810   0.02917   0.76680   -0.323979           
         B         B         0.27741   0.05992   0.75248   0.588575  
         O         O         0.22736   0.03319   0.74266   -0.347345           
         C         C         0.17377   0.80097   0.75469   0.028566  
         C         C         0.21756   0.84558   0.75984   0.031744  
         C         C         0.26112   0.84302   0.76488   -0.225653           
         C         C         0.25991   0.79749   0.76762   0.173240  
         C         C         0.21728   0.75372   0.76339   0.174219  
         C         C         0.17416   0.75425   0.75607   -0.223446           
         O         O         0.22736   0.71374   0.76616   -0.346505           
         B         B         0.27727   0.73498   0.77249   0.594684  
         O         O         0.29766   0.78671   0.77380   -0.321846           
         H         H         0.08368   0.72496   0.75237   0.134587  
         H         H         0.08419   0.88790   0.73094   0.134325  
         H         H         0.14157   0.94436   0.72535   0.134919  
         H         H         0.29569   0.93937   0.78453   0.142237  
         H         H         0.29498   0.87509   0.76406   0.141519  
         H         H         0.14176   0.71985   0.75389   0.135155  
         C         C         0.91637   0.73048   0.74489   -0.233290           
         C         C         0.84201   0.73624   0.73989   -0.138563           
         C         C         0.89173   0.67943   0.74568   -0.099043           
         C         C         0.89064   0.75892   0.74238   -0.059121           
         C         C         0.84184   0.65536   0.74509   0.073622  
         H         H         0.82226   0.75746   0.73493   0.111139  
         H         H         0.91101   0.65751   0.74920   0.108156  
         H         H         0.90982   0.79860   0.74002   0.108180  
         C         C         0.74175   0.60985   0.74633   -0.229872           
         C         C         0.81598   0.60352   0.74729   -0.135798           
         C         C         0.76657   0.66041   0.74278   -0.100548           
         C         C         0.76746   0.58131   0.74749   -0.060807           
         C         C         0.81640   0.68429   0.74168   0.077329  
         H         H         0.83542   0.58194   0.75154   0.110340  
         H         H         0.74737   0.68231   0.73908   0.107885  
         H         H         0.74827   0.54188   0.75115   0.107929  
         C         C         0.30554   0.70427   0.76909   -0.262932           
         C         C         0.30887   0.62334   0.76152   -0.049948           
         C         C         0.35507   0.72486   0.75292   0.174546  
         C         C         0.28382   0.65323   0.77084   -0.055593           
         C         C         0.38057   0.69386   0.74100   0.157380  
         N         N         0.38277   0.77274   0.74431   -0.341091           
         S         S         0.43533   0.77563   0.72165   0.444769  
         N         N         0.42682   0.71849   0.72144   -0.354672           
         H         H         0.28964   0.58424   0.76728   0.111217  
         H         H         0.24610   0.63597   0.78282   0.112187  
         C         C         0.35729   0.64237   0.74866   -0.261129           
         C         C         0.30548   0.11558   0.74714   -0.260153           
         C         C         0.35739   0.22273   0.74493   -0.261695           
         C         C         0.28294   0.14546   0.74114   -0.060939           
         C         C         0.38168   0.19283   0.74784   0.167881  
         C         C         0.30813   0.19749   0.74132   -0.049880           
         C         C         0.35605   0.13998   0.75059   0.174538  
         N         N         0.42926   0.20967   0.75042   -0.344893           
         S         S         0.43840   0.16185   0.75781   0.441522  
         N         N         0.38476   0.11805   0.75695   -0.340110           
         H         H         0.24436   0.12805   0.73650   0.113942  
         H         H         0.28829   0.21867   0.73687   0.112875 

