
##########################################################################
#               Crystallographic Information Format file
#               Produced by PyCifRW module
#
#  This is a CIF file.  CIF has been adopted by the International
#  Union of Crystallography as the standard for data archiving and
#  transmission.
#
#  For information on this file format, follow the CIF links at
#  http://www.iucr.org
##########################################################################

data_image0

_cell_length_a                          60.6566
_cell_length_b                          30.2004
_cell_length_c                          8.03305
_cell_angle_alpha                       123.049
_cell_angle_beta                        89.1847
_cell_angle_gamma                       90.4129
_symmetry_space_group_name_H-M          'P 1'
_space_group_name_Hall                  'P 1'
loop_
  _atom_site_type_symbol
  _atom_site_label
  _atom_site_fract_x
  _atom_site_fract_y
  _atom_site_fract_z
  _atom_site_charge
         C         C         0.34330   0.52461   0.25619   0.029529  
         C         C         0.34316   0.47671   0.25226   0.028260  
         C         C         0.36343   0.45368   0.25431   -0.234024           
         C         C         0.36369   0.54904   0.26277   -0.233678           
         C         C         0.38272   0.47841   0.25945   0.173802  
         C         C         0.38287   0.52530   0.26330   0.174414  
         C         C         0.84336   0.02641   0.24690   0.029548  
         C         C         0.86392   0.04968   0.24835   -0.235779           
         C         C         0.88300   0.02572   0.25021   0.173408  
         C         C         0.65928   0.47815   0.25945   0.028364  
         C         C         0.65909   0.52563   0.26064   0.029417  
         C         C         0.63866   0.54842   0.26107   -0.234674           
         C         C         0.63903   0.45402   0.25917   -0.232205           
         C         C         0.61953   0.52384   0.26048   0.173341  
         C         C         0.61967   0.47729   0.25882   0.173801  
         C         C         0.15903   0.97418   0.25536   0.029122  
         C         C         0.13871   0.95089   0.25952   -0.233285           
         C         C         0.11941   0.97470   0.26148   0.171985  
         C         C         0.15894   0.02146   0.25520   0.028954  
         C         C         0.13858   0.04463   0.25685   -0.233352           
         C         C         0.11940   0.02077   0.25986   0.174308  
         C         C         0.84301   0.97897   0.24612   0.028569  
         C         C         0.86315   0.95566   0.24900   -0.231843           
         C         C         0.88256   0.97941   0.25031   0.173808  
         O         O         0.40447   0.54099   0.26639   -0.340701           
         O         O         0.90475   0.04059   0.25180   -0.341502           
         O         O         0.59814   0.46138   0.25756   -0.340592           
         O         O         0.09782   0.95989   0.26601   -0.339952           
         O         O         0.59798   0.53839   0.25924   -0.341256           
         O         O         0.09791   0.03593   0.26046   -0.339980           
         O         O         0.40418   0.46369   0.26304   -0.340809           
         O         O         0.90391   0.96403   0.25383   -0.340092           
         B         B         0.41747   0.50237   0.26490   0.593358  
         B         B         0.91742   0.00206   0.25418   0.594458  
         B         B         0.58491   0.49950   0.25780   0.594760  
         B         B         0.08471   0.99801   0.26455   0.593262  
         C         C         0.32258   0.54798   0.25100   0.029492  
         C         C         0.30212   0.52351   0.24576   0.027419  
         C         C         0.32272   0.59506   0.25132   -0.225169           
         C         C         0.30292   0.61580   0.24554   0.178965  
         C         C         0.28285   0.59177   0.23950   0.173049  
         C         C         0.28200   0.54643   0.24032   -0.226221           
         C         C         0.82268   0.05050   0.24502   0.027663  
         C         C         0.80213   0.02636   0.24036   0.032272  
         C         C         0.82281   0.09808   0.24897   -0.223426           
         C         C         0.80302   0.11896   0.24387   0.175711  
         C         C         0.78292   0.09459   0.23411   0.174451  
         C         C         0.78202   0.04912   0.23382   -0.230723           
         C         C         0.68021   0.45463   0.25895   0.032808  
         C         C         0.70050   0.47897   0.25846   0.026496  
         C         C         0.68046   0.40723   0.25628   -0.224316           
         C         C         0.70048   0.38622   0.25548   0.179079  
         C         C         0.72034   0.41055   0.25896   0.172153  
         C         C         0.72082   0.45611   0.25945   -0.225277           
         C         C         0.17994   0.95033   0.25334   0.029964  
         C         C         0.20028   0.97460   0.25363   0.030552  
         C         C         0.18015   0.90281   0.24976   -0.223080           
         C         C         0.20012   0.88182   0.25010   0.177064  
         C         C         0.22006   0.90619   0.25504   0.171438  
         C         C         0.22059   0.95184   0.25597   -0.229381           
         C         C         0.67978   0.55041   0.25951   0.029366  
         C         C         0.70030   0.52718   0.25748   0.031071  
         C         C         0.67954   0.59777   0.26193   -0.221854           
         C         C         0.69930   0.61981   0.25961   0.177141  
         C         C         0.71943   0.59632   0.25206   0.172670  
         C         C         0.72040   0.55090   0.25235   -0.231526           
         C         C         0.17966   0.04574   0.25184   0.031461  
         C         C         0.20015   0.02261   0.25126   0.027909  
         C         C         0.17952   0.09260   0.25064   -0.224038           
         C         C         0.19933   0.11431   0.24696   0.179270  
         C         C         0.21942   0.09112   0.24261   0.171096  
         C         C         0.22028   0.04615   0.24599   -0.225228           
         C         C         0.32230   0.45169   0.24683   0.027286  
         C         C         0.30197   0.47502   0.24463   0.033180  
         C         C         0.32213   0.40403   0.24243   -0.224199           
         C         C         0.30217   0.38192   0.23871   0.177972  
         C         C         0.28221   0.40534   0.24122   0.174614  
         C         C         0.28165   0.45093   0.24203   -0.231821           
         C         C         0.82205   0.95467   0.24352   0.030086  
         C         C         0.80180   0.97826   0.24152   0.028026  
         C         C         0.82169   0.90728   0.24093   -0.226528           
         C         C         0.80164   0.88573   0.23925   0.181571  
         C         C         0.78179   0.90954   0.24224   0.172016  
         C         C         0.78140   0.95492   0.24180   -0.226986           
         O         O         0.26567   0.62041   0.23138   -0.342048           
         O         O         0.76578   0.12314   0.22493   -0.340540           
         O         O         0.73780   0.38158   0.26092   -0.343191           
         O         O         0.23747   0.87729   0.25846   -0.340911           
         O         O         0.73656   0.62542   0.24271   -0.341039           
         O         O         0.23661   0.12017   0.23365   -0.342902           
         O         O         0.26480   0.37580   0.24395   -0.341290           
         O         O         0.76428   0.88070   0.24753   -0.341579           
         B         B         0.27586   0.66276   0.23352   0.576223  
         B         B         0.77605   0.16594   0.23102   0.580066  
         B         B         0.72801   0.33837   0.25504   0.579088  
         B         B         0.22754   0.83425   0.25288   0.580280  
         B         B         0.72629   0.66795   0.24892   0.580424  
         B         B         0.22645   0.16225   0.23591   0.577817  
         B         B         0.27477   0.33339   0.24079   0.579162  
         B         B         0.77402   0.83814   0.24482   0.576477  
         O         O         0.29894   0.66047   0.24278   -0.340460           
         O         O         0.79907   0.16408   0.24413   -0.341988           
         O         O         0.70488   0.34080   0.25168   -0.341824           
         O         O         0.20442   0.83656   0.24790   -0.341667           
         O         O         0.70321   0.66502   0.25937   -0.341796           
         O         O         0.20332   0.15909   0.24420   -0.341497           
         O         O         0.29788   0.33644   0.23585   -0.342193           
         O         O         0.79713   0.84063   0.23825   -0.341794           
         H         H         0.36405   0.41785   0.25468   0.134726  
         H         H         0.36449   0.58532   0.26546   0.134873  
         H         H         0.33789   0.61448   0.25318   0.134995  
         H         H         0.33716   0.38532   0.24588   0.135467  
         H         H         0.26613   0.52904   0.23542   0.136100  
         H         H         0.26590   0.46760   0.24183   0.136469  
         H         H         0.86355   0.92044   0.25356   0.134274  
         H         H         0.83665   0.88813   0.24270   0.135097  
         H         H         0.76569   0.97209   0.24376   0.136985  
         H         H         0.63778   0.58384   0.25832   0.134599  
         H         H         0.63854   0.41855   0.26218   0.134421  
         H         H         0.66548   0.38752   0.25664   0.136301  
         H         H         0.66428   0.61633   0.26275   0.135743  
         H         H         0.73656   0.47356   0.26103   0.136440  
         H         H         0.73632   0.53403   0.24702   0.136468  
         H         H         0.13777   0.07987   0.25282   0.134385  
         H         H         0.16433   0.11104   0.24937   0.135810  
         H         H         0.23617   0.02954   0.24340   0.136241  
         H         H         0.13814   0.91579   0.26487   0.134107  
         H         H         0.16507   0.88315   0.24840   0.136488  
         H         H         0.23630   0.96969   0.25964   0.135990  
         H         H         0.86483   0.08499   0.24461   0.134451  
         H         H         0.83797   0.11781   0.25299   0.135114  
         H         H         0.76618   0.03143   0.22726   0.136219  
         C         C         0.55961   0.49930   0.25701   -0.235777           
         C         C         0.05940   0.99851   0.26527   -0.235616           
         C         C         0.44277   0.50196   0.26313   -0.232969           
         C         C         0.94267   0.00115   0.25587   -0.235790           
         C         C         0.54814   0.54041   0.26257   -0.104697           
         C         C         0.04809   0.03969   0.26987   -0.104317           
         C         C         0.45423   0.46092   0.25803   -0.104303           
         C         C         0.95386   0.96009   0.25285   -0.102462           
         C         C         0.45480   0.54234   0.26584   -0.104700           
         C         C         0.95487   0.04149   0.26021   -0.103438           
         C         C         0.54759   0.45858   0.25177   -0.102611           
         C         C         0.04718   0.95801   0.26013   -0.103187           
         C         C         0.52443   0.45806   0.25163   0.068097  
         C         C         0.02404   0.95779   0.25927   0.068774  
         C         C         0.47796   0.54253   0.26398   0.069777  
         C         C         0.97799   0.04190   0.26362   0.069102  
         C         C         0.47736   0.45929   0.25502   0.069418  
         C         C         0.97698   0.95869   0.25505   0.068117  
         C         C         0.52500   0.54157   0.26243   0.068050  
         C         C         0.02497   0.04119   0.26924   0.067776  
         H         H         0.55731   0.57190   0.26511   0.108690  
         H         H         0.05735   0.07096   0.27159   0.108985  
         H         H         0.44502   0.42985   0.25824   0.109123  
         H         H         0.94446   0.92898   0.25115   0.109559  
         H         H         0.44607   0.57390   0.26699   0.109639  
         H         H         0.94627   0.07291   0.25950   0.109156  
         H         H         0.55630   0.42687   0.24976   0.109082  
         H         H         0.05578   0.92625   0.25847   0.108621  
         C         C         0.51292   0.49998   0.25693   0.003277  
         C         C         0.01272   -0.00025  0.26353   0.004909  
         C         C         0.48946   0.50053   0.25807   0.003106  
         C         C         0.98928   0.00011   0.26087   0.002816  
         C         C         0.49051   0.58338   0.26667   -0.134876           
         C         C         0.99068   0.08294   0.26909   -0.135406           
         C         C         0.51186   0.41719   0.24869   -0.135457           
         C         C         0.01129   0.91705   0.25584   -0.136929           
         C         C         0.51303   0.58294   0.26616   -0.134700           
         C         C         0.01319   0.08268   0.27210   -0.134917           
         C         C         0.48933   0.41786   0.25074   -0.137154           
         C         C         0.98877   0.91750   0.25402   -0.136675           
         C         C         0.23905   0.20627   0.23357   -0.210333           
         C         C         0.73860   0.71190   0.24478   -0.216285           
         C         C         0.76146   0.79412   0.24679   -0.213594           
         C         C         0.26222   0.28904   0.24075   -0.215402           
         C         C         0.76371   0.20993   0.22998   -0.217571           
         C         C         0.26340   0.70677   0.23316   -0.213840           
         C         C         0.24018   0.78987   0.24912   -0.215406           
         C         C         0.74069   0.29366   0.24879   -0.212165           
         C         C         0.22761   0.24708   0.23621   -0.069894           
         C         C         0.72699   0.75313   0.25207   -0.068237           
         C         C         0.77307   0.75274   0.23886   -0.068359           
         C         C         0.27367   0.24827   0.23801   -0.068584           
         C         C         0.77522   0.25025   0.22792   -0.068550           
         C         C         0.27484   0.74794   0.23602   -0.069099           
         C         C         0.22875   0.74861   0.24535   -0.068267           
         C         C         0.72919   0.25314   0.24994   -0.068354           
         C         C         0.23900   0.28770   0.23936   -0.053738           
         C         C         0.73825   0.79363   0.25325   -0.050599           
         C         C         0.76183   0.71225   0.23756   -0.054961           
         C         C         0.26228   0.20751   0.23405   -0.053589           
         C         C         0.76390   0.29154   0.23744   -0.052548           
         C         C         0.26340   0.78885   0.24400   -0.053714           
         C         C         0.24017   0.70769   0.23732   -0.052151           
         C         C         0.74051   0.21198   0.24082   -0.053995           
         H         H         0.20968   0.24651   0.23486   0.108569  
         H         H         0.70904   0.75297   0.25634   0.108549  
         H         H         0.79101   0.75270   0.23404   0.107686  
         H         H         0.29162   0.24906   0.23998   0.107445  
         H         H         0.79314   0.24861   0.21730   0.108115  
         H         H         0.29278   0.74746   0.23132   0.108278  
         H         H         0.21080   0.74913   0.25012   0.108554  
         H         H         0.71126   0.25449   0.25950   0.108116  
         H         H         0.27233   0.82028   0.24421   0.107006  
         H         H         0.77293   0.32224   0.23367   0.105341  
         H         H         0.73153   0.18128   0.24506   0.108252  
         H         H         0.23123   0.67627   0.23684   0.106712  
         H         H         0.72914   0.82511   0.25734   0.105812  
         H         H         0.23002   0.31863   0.23842   0.107673  
         H         H         0.27131   0.17645   0.23358   0.105952  
         H         H         0.77089   0.68066   0.23336   0.107731  
         H         H         0.48160   0.61458   0.26684   0.113134  
         H         H         0.98184   0.11400   0.26776   0.113380  
         H         H         0.52073   0.38600   0.24865   0.112811  
         H         H         0.02006   0.88605   0.25788   0.112966  
         H         H         0.52239   0.61376   0.26559   0.112801  
         H         H         0.02263   0.11364   0.27333   0.113392  
         H         H         0.47996   0.38727   0.25275   0.115601  
         H         H         0.97931   0.88685   0.25484   0.115884  
         C         C         0.34146   0.52845   0.75344   0.028670  
         C         C         0.34104   0.48128   0.75445   0.030191  
         C         C         0.36112   0.45824   0.76028   -0.233008           
         C         C         0.36202   0.55162   0.75492   -0.233740           
         C         C         0.38055   0.48185   0.76111   0.173013  
         C         C         0.38103   0.52773   0.75809   0.172480  
         C         C         0.84129   0.01976   0.74372   0.030032  
         C         C         0.86156   0.04420   0.74763   -0.232595           
         C         C         0.88087   0.02095   0.74860   0.173458  
         C         C         0.65666   0.47149   0.75388   0.029138  
         C         C         0.65700   0.51908   0.75555   0.027675  
         C         C         0.63686   0.54306   0.75695   -0.231826           
         C         C         0.63610   0.44887   0.75642   -0.235500           
         C         C         0.61742   0.51987   0.75903   0.173346  
         C         C         0.61705   0.47366   0.75987   0.173518  
         C         C         0.15721   0.97916   0.75648   0.029036  
         C         C         0.13703   0.95523   0.75933   -0.232143           
         C         C         0.11760   0.97841   0.76052   0.172811  
         C         C         0.15690   0.02648   0.75645   0.028936  
         C         C         0.13637   0.04911   0.75775   -0.235674           
         C         C         0.11732   0.02462   0.75980   0.174381  
         C         C         0.84142   0.97209   0.74143   0.027986  
         C         C         0.86184   0.94946   0.74313   -0.232948           
         C         C         0.88102   0.97430   0.74638   0.172350  
         O         O         0.40274   0.54246   0.75845   -0.340329           
         O         O         0.90236   0.03719   0.75084   -0.339883           
         O         O         0.59535   0.45946   0.76407   -0.340135           
         O         O         0.09612   0.96287   0.76433   -0.339263           
         O         O         0.59601   0.53560   0.75901   -0.339698           
         O         O         0.09571   0.03923   0.76130   -0.341255           
         O         O         0.40189   0.46670   0.76613   -0.339355           
         O         O         0.90262   0.96010   0.74961   -0.341169           
         B         B         0.41541   0.50427   0.76272   0.592904  
         B         B         0.91558   -0.00075  0.75176   0.593774  
         B         B         0.58257   0.49778   0.76155   0.593669  
         B         B         0.08278   0.00076   0.76420   0.593578  
         C         C         0.32088   0.55248   0.74944   0.029995  
         C         C         0.30029   0.52864   0.74563   0.029014  
         C         C         0.32123   0.59983   0.75163   -0.221297           
         C         C         0.30153   0.62105   0.74620   0.177009  
         C         C         0.28139   0.59704   0.73770   0.171461  
         C         C         0.28029   0.55181   0.73933   -0.228218           
         C         C         0.82043   0.04299   0.74051   0.030810  
         C         C         0.80012   0.01833   0.73784   0.027226  
         C         C         0.82024   0.09017   0.74142   -0.223834           
         C         C         0.80026   0.11084   0.73877   0.178752  
         C         C         0.78040   0.08611   0.73234   0.171657  
         C         C         0.77986   0.04068   0.73254   -0.224301           
         C         C         0.67732   0.44667   0.75143   0.028084  
         C         C         0.69787   0.47050   0.75374   0.032524  
         C         C         0.67714   0.39886   0.74622   -0.224709           
         C         C         0.69695   0.37721   0.74648   0.177827  
         C         C         0.71706   0.40111   0.75280   0.174409  
         C         C         0.71798   0.44692   0.75531   -0.230667           
         C         C         0.17819   0.95559   0.75465   0.030272  
         C         C         0.19842   0.97994   0.75301   0.026882  
         C         C         0.17855   0.90836   0.75309   -0.226020           
         C         C         0.19861   0.88740   0.75155   0.180282  
         C         C         0.21843   0.91165   0.75313   0.172554  
         C         C         0.21882   0.95709   0.75281   -0.226831           
         C         C         0.67796   0.54291   0.75491   0.029701  
         C         C         0.69820   0.51897   0.75485   0.028224  
         C         C         0.67829   0.59005   0.75591   -0.226197           
         C         C         0.69835   0.61133   0.75558   0.181990  
         C         C         0.71819   0.58748   0.75213   0.172740  
         C         C         0.71859   0.54220   0.75329   -0.227133           
         C         C         0.17754   0.05123   0.75410   0.029026  
         C         C         0.19810   0.02812   0.75228   0.031289  
         C         C         0.17728   0.09836   0.75493   -0.223855           
         C         C         0.19704   0.12036   0.75225   0.178553  
         C         C         0.21720   0.09724   0.74672   0.172290  
         C         C         0.21819   0.05201   0.74816   -0.229680           
         C         C         0.32007   0.45686   0.75002   0.030147  
         C         C         0.29988   0.48049   0.74701   0.029472  
         C         C         0.31971   0.40932   0.74636   -0.223685           
         C         C         0.29966   0.38760   0.74305   0.179129  
         C         C         0.27983   0.41133   0.74488   0.171427  
         C         C         0.27948   0.45698   0.74600   -0.226164           
         C         C         0.82068   0.94704   0.73950   0.028715  
         C         C         0.80022   0.97021   0.73932   0.031534  
         C         C         0.82069   0.89959   0.73666   -0.221255           
         C         C         0.80082   0.87762   0.73705   0.175946  
         C         C         0.78076   0.90110   0.74264   0.172538  
         C         C         0.78002   0.94652   0.74217   -0.230173           
         O         O         0.26438   0.62570   0.72787   -0.340385           
         O         O         0.76297   0.11432   0.72559   -0.342237           
         O         O         0.73423   0.37180   0.75685   -0.341530           
         O         O         0.23596   0.88296   0.75577   -0.341955           
         O         O         0.73569   0.61614   0.74526   -0.343377           
         O         O         0.23431   0.12640   0.73764   -0.341827           
         O         O         0.26229   0.38196   0.74652   -0.342345           
         O         O         0.76349   0.87197   0.74997   -0.339694           
         B         B         0.27465   0.66863   0.73524   0.579233  
         B         B         0.77270   0.15748   0.73095   0.578638  
         B         B         0.72401   0.32891   0.75064   0.578614  
         B         B         0.22626   0.84011   0.75317   0.576646  
         B         B         0.72596   0.65858   0.74710   0.577020  
         B         B         0.22399   0.16826   0.73940   0.579161  
         B         B         0.27202   0.33929   0.74302   0.579684  
         B         B         0.77361   0.82945   0.74504   0.580817  
         O         O         0.29771   0.66620   0.74605   -0.342580           
         O         O         0.79582   0.15593   0.74006   -0.342621           
         O         O         0.70094   0.33161   0.74316   -0.341685           
         O         O         0.20312   0.84233   0.75005   -0.340440           
         O         O         0.70285   0.65622   0.75521   -0.341951           
         O         O         0.20093   0.16528   0.75012   -0.341569           
         O         O         0.29515   0.34224   0.74018   -0.341823           
         O         O         0.79672   0.83236   0.73643   -0.342445           
         H         H         0.36152   0.42324   0.76631   0.134581  
         H         H         0.36307   0.58679   0.75035   0.133692  
         H         H         0.33651   0.61922   0.75608   0.135368  
         H         H         0.33466   0.39014   0.74830   0.135908  
         H         H         0.26436   0.53469   0.73447   0.136454  
         H         H         0.26380   0.47403   0.74646   0.136107  
         H         H         0.86256   0.91390   0.74513   0.134205  
         H         H         0.83584   0.88086   0.73733   0.134838  
         H         H         0.76421   0.96343   0.74496   0.136423  
         H         H         0.63645   0.57849   0.75371   0.134200  
         H         H         0.63509   0.41328   0.75823   0.134779  
         H         H         0.66192   0.37946   0.74387   0.135869  
         H         H         0.66330   0.60904   0.75379   0.135575  
         H         H         0.73385   0.46430   0.76061   0.135769  
         H         H         0.73431   0.52513   0.75133   0.136040  
         H         H         0.13535   0.08444   0.75432   0.134454  
         H         H         0.16201   0.11679   0.75474   0.135135  
         H         H         0.23409   0.03535   0.74436   0.135993  
         H         H         0.13663   0.91999   0.76381   0.134198  
         H         H         0.16357   0.88888   0.75537   0.135743  
         H         H         0.23450   0.97460   0.75352   0.136249  
         H         H         0.86217   0.08003   0.74716   0.134615  
         H         H         0.83528   0.10981   0.74179   0.135785  
         H         H         0.76411   0.02295   0.72807   0.136501  
         C         C         0.55730   0.49800   0.75921   -0.233614           
         C         C         0.05750   0.00062   0.76557   -0.234267           
         C         C         0.44063   0.50335   0.76191   -0.235992           
         C         C         0.94081   -0.00008  0.75470   -0.237091           
         C         C         0.54610   0.53883   0.76092   -0.105225           
         C         C         0.04598   0.04124   0.76806   -0.104457           
         C         C         0.45175   0.46180   0.75575   -0.104742           
         C         C         0.95233   0.95922   0.75137   -0.103527           
         C         C         0.45290   0.54336   0.76435   -0.104141           
         C         C         0.95270   0.04086   0.76049   -0.102681           
         C         C         0.54505   0.45761   0.75452   -0.103556           
         C         C         0.04555   0.96009   0.76229   -0.103591           
         C         C         0.52190   0.45740   0.75249   0.068740  
         C         C         0.02242   0.95916   0.76006   0.069358  
         C         C         0.47602   0.54284   0.76233   0.068050  
         C         C         0.97583   0.04190   0.76295   0.068132  
         C         C         0.47486   0.45956   0.75332   0.068246  
         C         C         0.97543   0.95864   0.75412   0.068379  
         C         C         0.52300   0.54049   0.76043   0.069174  
         C         C         0.02286   0.04213   0.76693   0.069216  
         H         H         0.55542   0.56991   0.76189   0.109140  
         H         H         0.05513   0.07250   0.76883   0.109040  
         H         H         0.44226   0.43101   0.75542   0.109414  
         H         H         0.94319   0.92764   0.74861   0.108778  
         H         H         0.44439   0.57524   0.76586   0.109358  
         H         H         0.94386   0.07221   0.76110   0.108890  
         H         H         0.55362   0.42611   0.75492   0.108962  
         H         H         0.05433   0.92886   0.76309   0.109200  
         C         C         0.51066   0.49950   0.75695   0.003407  
         C         C         0.01085   0.00059   0.76245   0.002701  
         C         C         0.48722   0.50062   0.75749   0.004153  
         C         C         0.98741   0.00038   0.75983   0.003665  
         C         C         0.48884   0.58309   0.76326   -0.134852           
         C         C         0.98829   0.08298   0.76656   -0.135237           
         C         C         0.50906   0.41669   0.74830   -0.136484           
         C         C         0.00996   0.91804   0.75635   -0.135906           
         C         C         0.51135   0.58190   0.76200   -0.134600           
         C         C         0.01081   0.08305   0.76815   -0.135596           
         C         C         0.48654   0.41777   0.74886   -0.135139           
         C         C         0.98745   0.91776   0.75315   -0.134152           
         C         C         0.23632   0.21201   0.73383   -0.215798           
         C         C         0.73849   0.70259   0.74447   -0.213117           
         C         C         0.76122   0.78538   0.74836   -0.215021           
         C         C         0.25936   0.29491   0.74170   -0.212702           
         C         C         0.75986   0.20128   0.73182   -0.211107           
         C         C         0.26217   0.71272   0.73521   -0.215028           
         C         C         0.23900   0.79587   0.75003   -0.213313           
         C         C         0.73649   0.28444   0.74824   -0.217134           
         C         C         0.22481   0.25246   0.73486   -0.068831           
         C         C         0.72682   0.74381   0.75159   -0.067669           
         C         C         0.77287   0.74419   0.74116   -0.068962           
         C         C         0.27087   0.25422   0.73933   -0.068077           
         C         C         0.77119   0.24207   0.73131   -0.068935           
         C         C         0.27362   0.75396   0.73886   -0.067151           
         C         C         0.22754   0.75455   0.74599   -0.068492           
         C         C         0.72514   0.24352   0.74775   -0.067181           
         C         C         0.23614   0.29335   0.73924   -0.053471           
         C         C         0.73799   0.78454   0.75388   -0.055574           
         C         C         0.76170   0.70342   0.73888   -0.051294           
         C         C         0.25955   0.21344   0.73520   -0.053430           
         C         C         0.75973   0.28290   0.73898   -0.053205           
         C         C         0.26223   0.79487   0.74615   -0.052703           
         C         C         0.23892   0.71361   0.73827   -0.053700           
         C         C         0.73663   0.20254   0.73935   -0.054210           
         H         H         0.20687   0.25145   0.73138   0.108038  
         H         H         0.70887   0.74350   0.75498   0.108479  
         H         H         0.79081   0.74454   0.73760   0.107441  
         H         H         0.28882   0.25507   0.74193   0.107738  
         H         H         0.78913   0.24137   0.72491   0.107498  
         H         H         0.29157   0.75348   0.73511   0.107733  
         H         H         0.20959   0.75500   0.74997   0.107886  
         H         H         0.70720   0.24437   0.75558   0.108005  
         H         H         0.27127   0.82627   0.74704   0.106188  
         H         H         0.76866   0.31386   0.73600   0.108088  
         H         H         0.72773   0.17149   0.74188   0.106322  
         H         H         0.22992   0.68218   0.73742   0.107123  
         H         H         0.72884   0.81590   0.75739   0.107628  
         H         H         0.22712   0.32427   0.73867   0.106090  
         H         H         0.26855   0.18250   0.73593   0.107698  
         H         H         0.77090   0.67200   0.73461   0.105873  
         H         H         0.48016   0.61425   0.76152   0.112761  
         H         H         0.97932   0.11376   0.76443   0.112885  
         H         H         0.51768   0.38511   0.74763   0.114513  
         H         H         0.01891   0.88730   0.75886   0.113375  
         H         H         0.52094   0.61194   0.75820   0.112956  
         H         H         0.02009   0.11389   0.76722   0.113284  
         H         H         0.47697   0.38714   0.74881   0.113247  
         H         H         0.97812   0.88681   0.75293   0.112919 

