
##########################################################################
#               Crystallographic Information Format file
#               Produced by PyCifRW module
#
#  This is a CIF file.  CIF has been adopted by the International
#  Union of Crystallography as the standard for data archiving and
#  transmission.
#
#  For information on this file format, follow the CIF links at
#  http://www.iucr.org
##########################################################################

data_image0

_cell_length_a                          30.3219
_cell_length_b                          52.1717
_cell_length_c                          8.0153
_cell_angle_alpha                       90.2352
_cell_angle_beta                        125.183
_cell_angle_gamma                       90.1235
_symmetry_space_group_name_H-M          'P 1'
_space_group_name_Hall                  'P 1'
loop_
  _atom_site_type_symbol
  _atom_site_label
  _atom_site_fract_x
  _atom_site_fract_y
  _atom_site_fract_z
  _atom_site_charge
         C         C         0.52265   0.80913   0.23099   0.030061  
         C         C         0.54891   0.83235   0.23977   0.029992  
         C         C         0.59730   0.83150   0.25053   -0.224571           
         C         C         0.61661   0.80802   0.24525   0.178231  
         C         C         0.58987   0.78527   0.22983   0.172484  
         C         C         0.54392   0.78520   0.22543   -0.222638           
         C         C         0.03596   0.30807   0.24560   0.032760  
         C         C         0.06308   0.33141   0.26162   0.029651  
         C         C         0.11272   0.33039   0.28166   -0.220482           
         C         C         0.13210   0.30689   0.27611   0.174704  
         C         C         0.10437   0.28407   0.25074   0.174720  
         C         C         0.05719   0.28413   0.23823   -0.231509           
         C         C         0.53352   0.19276   0.23421   0.031023  
         C         C         0.55887   0.16935   0.24089   0.030006  
         C         C         0.60744   0.16999   0.25282   -0.219216           
         C         C         0.62822   0.19333   0.25222   0.174456  
         C         C         0.60280   0.21631   0.24088   0.175941  
         C         C         0.55633   0.21659   0.23364   -0.233214           
         C         C         0.02665   0.69254   0.25031   0.028534  
         C         C         0.05250   0.66924   0.25841   0.031101  
         C         C         0.10048   0.66997   0.26646   -0.222761           
         C         C         0.12009   0.69335   0.25994   0.178734  
         C         C         0.09414   0.71621   0.24652   0.172069  
         C         C         0.04842   0.71637   0.24425   -0.225438           
         O         O         0.61663   0.76469   0.21922   -0.325853           
         O         O         0.13150   0.26366   0.23848   -0.336320           
         O         O         0.63143   0.23666   0.23677   -0.337183           
         O         O         0.12128   0.73661   0.23395   -0.344978           
         B         B         0.66074   0.77537   0.23073   0.588305  
         B         B         0.17682   0.27472   0.25901   0.579530  
         B         B         0.67527   0.22554   0.24797   0.581290  
         B         B         0.16486   0.72554   0.24252   0.580273  
         O         O         0.66179   0.80227   0.24940   -0.347089           
         O         O         0.17803   0.30141   0.28536   -0.341698           
         O         O         0.67390   0.19866   0.25842   -0.341730           
         O         O         0.16470   0.69874   0.25971   -0.342306           
         C         C         0.47389   0.81008   0.22617   0.029098  
         C         C         0.45084   0.83419   0.22092   0.027274  
         C         C         0.44958   0.78695   0.22869   -0.226350           
         C         C         0.40390   0.78847   0.22536   0.173143  
         C         C         0.38052   0.81205   0.21549   0.181326  
         C         C         0.40294   0.83486   0.21387   -0.225206           
         C         C         0.98642   0.30889   0.23592   0.025635  
         C         C         0.96441   0.33298   0.23873   0.031481  
         C         C         0.96064   0.28578   0.22919   -0.223693           
         C         C         0.91492   0.28728   0.22573   0.172156  
         C         C         0.89297   0.31086   0.22545   0.181355  
         C         C         0.91667   0.33367   0.23260   -0.229891           
         C         C         0.48418   0.19204   0.22620   0.026459  
         C         C         0.46128   0.16801   0.22563   0.031474  
         C         C         0.45896   0.21519   0.22143   -0.223762           
         C         C         0.41317   0.21375   0.21773   0.172160  
         C         C         0.39029   0.19021   0.21381   0.180798  
         C         C         0.41329   0.16737   0.21798   -0.229504           
         C         C         0.97794   0.69163   0.24672   0.029986  
         C         C         0.95562   0.66739   0.24628   0.029693  
         C         C         0.95279   0.71468   0.24518   -0.228481           
         C         C         0.90702   0.71294   0.24207   0.171234  
         C         C         0.88511   0.68916   0.23923   0.184527  
         C         C         0.90848   0.66650   0.24339   -0.214505           
         O         O         0.33517   0.80778   0.21387   -0.344483           
         O         O         0.84726   0.30667   0.22118   -0.340277           
         O         O         0.34445   0.19451   0.20834   -0.341249           
         O         O         0.83964   0.69281   0.23618   -0.323850           
         B         B         0.33246   0.78101   0.22790   0.578218  
         B         B         0.84292   0.27992   0.22606   0.569823  
         B         B         0.34113   0.22129   0.21642   0.571533  
         B         B         0.83431   0.71938   0.23881   0.588999  
         O         O         0.37475   0.76882   0.23417   -0.341002           
         O         O         0.88433   0.26758   0.22643   -0.341386           
         O         O         0.38314   0.23355   0.22015   -0.343280           
         O         O         0.87596   0.73231   0.24345   -0.350256           
         C         C         0.52574   0.85693   0.23620   0.028238  
         C         C         0.47668   0.85795   0.22309   0.031533  
         C         C         0.45364   0.88216   0.21319   -0.235011           
         C         C         0.47980   0.90402   0.21789   0.175122  
         C         C         0.52791   0.90281   0.23184   0.176584  
         C         C         0.55136   0.87997   0.24067   -0.229478           
         C         C         0.03951   0.35609   0.25650   0.028785  
         C         C         0.04030   0.40222   0.25189   0.173970  
         C         C         0.06399   0.37946   0.25749   -0.229125           
         C         C         0.53467   0.14484   0.23449   0.029126  
         C         C         0.48669   0.14417   0.22888   0.029006  
         C         C         0.46356   0.12019   0.22443   -0.231347           
         C         C         0.48764   0.09817   0.22008   0.175414  
         C         C         0.53413   0.09887   0.22258   0.172812  
         C         C         0.55831   0.12156   0.23064   -0.229458           
         C         C         0.02929   0.64463   0.25574   0.028925  
         C         C         0.03063   0.59872   0.24970   0.174096  
         C         C         0.05417   0.62156   0.25718   -0.227755           
         C         C         0.99084   0.35681   0.24640   0.027695  
         C         C         0.96811   0.38081   0.24295   -0.229872           
         C         C         0.99323   0.40290   0.24537   0.177258  
         C         C         0.98082   0.64360   0.24633   0.030080  
         C         C         0.95750   0.61943   0.23719   -0.231242           
         C         C         0.98311   0.59754   0.23998   0.173727  
         O         O         0.54516   0.92724   0.23013   -0.322758           
         O         O         0.05623   0.42707   0.24948   -0.324651           
         O         O         0.54951   0.07412   0.21653   -0.323360           
         O         O         0.04740   0.57426   0.24657   -0.321648           
         B         B         0.50673   0.94354   0.21682   0.605697  
         B         B         0.01799   0.44284   0.24358   0.606377  
         B         B         0.51156   0.05835   0.21272   0.604259  
         B         B         0.00939   0.55795   0.23741   0.605567  
         O         O         0.46570   0.92958   0.20882   -0.346932           
         O         O         0.97855   0.42819   0.24048   -0.343933           
         O         O         0.47265   0.07286   0.21387   -0.342300           
         O         O         0.96904   0.57196   0.23327   -0.344605           
         H         H         0.61871   0.84868   0.25920   0.136070  
         H         H         0.52476   0.76710   0.21465   0.140730  
         H         H         0.46635   0.76833   0.23611   0.139116  
         H         H         0.38446   0.85275   0.21127   0.133930  
         H         H         0.41660   0.88368   0.20375   0.134309  
         H         H         0.58800   0.88003   0.24665   0.137384  
         H         H         0.13537   0.34753   0.29917   0.137346  
         H         H         0.03669   0.26615   0.21920   0.136295  
         H         H         0.09996   0.37984   0.25888   0.137672  
         H         H         0.62815   0.15264   0.26066   0.136970  
         H         H         0.53788   0.23477   0.22539   0.135565  
         H         H         0.47496   0.23384   0.22257   0.136827  
         H         H         0.39496   0.14955   0.21874   0.135891  
         H         H         0.42779   0.11892   0.22405   0.134912  
         H         H         0.59410   0.12121   0.23114   0.137454  
         H         H         0.12122   0.65271   0.27312   0.138060  
         H         H         0.02981   0.73450   0.23569   0.135441  
         H         H         0.09032   0.62142   0.25997   0.137057  
         H         H         0.97655   0.26715   0.23043   0.136110  
         H         H         0.89904   0.35148   0.23700   0.135307  
         H         H         0.93172   0.38199   0.23840   0.134190  
         H         H         0.96897   0.73337   0.24817   0.135364  
         H         H         0.89098   0.64861   0.24790   0.137820  
         H         H         0.92056   0.61798   0.22875   0.135639  
         C         C         0.78862   0.73299   0.23380   -0.260139           
         C         C         0.29789   0.23519   0.22417   -0.209271           
         C         C         0.79884   0.26604   0.23025   -0.208895           
         C         C         0.28901   0.76684   0.23441   -0.214495           
         C         C         0.74590   0.71935   0.22187   0.167695  
         C         C         0.25688   0.22121   0.21612   -0.065353           
         C         C         0.75707   0.27972   0.21824   -0.067188           
         C         C         0.24728   0.78027   0.22422   -0.068731           
         C         C         0.74556   0.77282   0.23694   -0.061010           
         C         C         0.26015   0.27461   0.25386   -0.067697           
         C         C         0.76017   0.22644   0.25360   -0.067234           
         C         C         0.24926   0.72679   0.24440   -0.070274           
         H         H         0.25591   0.20042   0.20227   0.108563  
         H         H         0.75586   0.30051   0.20422   0.108436  
         H         H         0.24679   0.80112   0.21758   0.107200  
         C         C         0.78671   0.75963   0.23996   -0.047154           
         C         C         0.29892   0.26205   0.24321   -0.049257           
         C         C         0.79966   0.23918   0.24808   -0.048797           
         C         C         0.28935   0.73988   0.24479   -0.048873           
         C         C         0.70361   0.73286   0.21807   0.176161  
         C         C         0.21806   0.23374   0.22630   -0.062634           
         C         C         0.71751   0.26699   0.22334   -0.059978           
         C         C         0.20709   0.76718   0.22336   -0.054986           
         H         H         0.81811   0.77072   0.24638   0.111907  
         H         H         0.33031   0.27298   0.24827   0.105261  
         H         H         0.83154   0.22841   0.25631   0.104815  
         H         H         0.32104   0.72929   0.25018   0.107752  
         C         C         0.70359   0.76021   0.22724   -0.259154           
         C         C         0.21911   0.26063   0.24567   -0.217206           
         C         C         0.71844   0.24008   0.24173   -0.218010           
         C         C         0.20756   0.74024   0.23447   -0.210439           
         H         H         0.18664   0.22288   0.22146   0.110159  
         H         H         0.68557   0.27774   0.21485   0.108602  
         H         H         0.17532   0.77773   0.21762   0.105567  
         H         H         0.74661   0.79368   0.24220   0.114003  
         H         H         0.26106   0.29541   0.26709   0.109225  
         H         H         0.76117   0.20566   0.26663   0.108102  
         H         H         0.24981   0.70595   0.25153   0.110246  
         C         C         0.51123   0.02890   0.20803   -0.263081           
         C         C         0.01181   0.52851   0.23248   -0.263379           
         C         C         0.50868   0.97293   0.20962   -0.262941           
         C         C         0.01690   0.47238   0.23846   -0.261707           
         C         C         0.55294   0.01423   0.22173   0.157330  
         C         C         0.05512   0.51544   0.24531   0.163587  
         C         C         0.55171   0.98641   0.22249   0.162636  
         C         C         0.05762   0.48761   0.24848   0.156224  
         C         C         0.46860   0.98794   0.19439   -0.052136           
         C         C         0.97526   0.48587   0.22467   -0.051113           
         C         C         0.46987   0.01506   0.19403   -0.050136           
         C         C         0.97274   0.51300   0.22146   -0.050447           
         N         N         0.59676   0.02392   0.23808   -0.346997           
         N         N         0.09726   0.52673   0.25824   -0.343347           
         N         N         0.59457   0.97559   0.23864   -0.344450           
         N         N         0.10163   0.47846   0.26431   -0.350207           
         S         S         0.63177   0.99928   0.25319   0.434277  
         S         S         0.13536   0.50350   0.27473   0.435769  
         N         N         0.74001   0.69350   0.21366   -0.348927           
         S         S         0.68568   0.68807   0.20286   0.441804  
         N         N         0.66654   0.71702   0.20721   -0.342784           
         H         H         0.43771   0.02555   0.18620   0.113110  
         H         H         0.93933   0.52214   0.21376   0.112240  
         H         H         0.43538   0.97843   0.18617   0.112937  
         H         H         0.94354   0.47515   0.21893   0.112769  
         C         C         0.52284   0.80746   0.73203   0.029798  
         C         C         0.54800   0.83088   0.73647   0.029744  
         C         C         0.59597   0.83032   0.74415   -0.224526           
         C         C         0.61623   0.80692   0.74221   0.178431  
         C         C         0.59078   0.78399   0.73253   0.170774  
         C         C         0.54493   0.78367   0.72890   -0.221546           
         C         C         0.00799   0.30624   0.73829   0.026110  
         C         C         0.03410   0.32947   0.74611   0.031474  
         C         C         0.08277   0.32868   0.75896   -0.228267           
         C         C         0.10263   0.30521   0.75628   0.178886  
         C         C         0.07632   0.28237   0.74232   0.173427  
         C         C         0.02989   0.28233   0.73501   -0.223772           
         C         C         0.50612   0.19084   0.72719   0.025000  
         C         C         0.53136   0.16766   0.72958   0.032102  
         C         C         0.57927   0.16843   0.73725   -0.230774           
         C         C         0.59980   0.19190   0.73871   0.182487  
         C         C         0.57494   0.21473   0.73393   0.172775  
         C         C         0.52897   0.21477   0.72978   -0.224872           
         C         C         0.02689   0.69046   0.75031   0.028725  
         C         C         0.05220   0.66687   0.75985   0.029644  
         C         C         0.10035   0.66727   0.76871   -0.223250           
         C         C         0.12057   0.69051   0.76250   0.179959  
         C         C         0.09494   0.71357   0.74689   0.173245  
         C         C         0.04917   0.71410   0.74374   -0.228467           
         O         O         0.61816   0.76353   0.72397   -0.324813           
         O         O         0.10383   0.26185   0.73334   -0.342026           
         O         O         0.60361   0.23528   0.73155   -0.342178           
         O         O         0.12252   0.73377   0.73437   -0.344731           
         B         B         0.66112   0.77451   0.72903   0.589732  
         B         B         0.14761   0.27286   0.74236   0.571358  
         B         B         0.64650   0.22420   0.73522   0.570811  
         B         B         0.16615   0.72238   0.74535   0.577319  
         O         O         0.66093   0.80140   0.74263   -0.347466           
         O         O         0.14789   0.29973   0.76087   -0.340943           
         O         O         0.64499   0.19735   0.74281   -0.339423           
         O         O         0.16568   0.69566   0.76470   -0.341802           
         C         C         0.47431   0.80800   0.72914   0.027997  
         C         C         0.45063   0.83193   0.72326   0.029551  
         C         C         0.45088   0.78475   0.73472   -0.223931           
         C         C         0.40503   0.78598   0.73063   0.171054  
         C         C         0.38073   0.80938   0.71771   0.179072  
         C         C         0.40258   0.83231   0.71509   -0.223442           
         C         C         0.95875   0.30726   0.73095   0.033167  
         C         C         0.93612   0.33148   0.72810   0.029084  
         C         C         0.93352   0.28421   0.72991   -0.233745           
         C         C         0.88726   0.28583   0.72318   0.175258  
         C         C         0.86408   0.30949   0.71299   0.173669  
         C         C         0.88747   0.33224   0.71593   -0.219245           
         C         C         0.45699   0.18975   0.72066   0.034842  
         C         C         0.43395   0.16551   0.71584   0.027664  
         C         C         0.43223   0.21284   0.72102   -0.230631           
         C         C         0.38630   0.21132   0.71658   0.175097  
         C         C         0.36307   0.18764   0.70724   0.174253  
         C         C         0.38591   0.16484   0.70805   -0.221092           
         C         C         0.97822   0.69020   0.74658   0.030976  
         C         C         0.95509   0.66627   0.74637   0.028489  
         C         C         0.95388   0.71360   0.74394   -0.229227           
         C         C         0.90824   0.71248   0.74169   0.171432  
         C         C         0.88560   0.68897   0.73968   0.184578  
         C         C         0.90782   0.66599   0.74268   -0.216310           
         O         O         0.33533   0.80490   0.71515   -0.344198           
         O         O         0.81779   0.30533   0.70538   -0.342121           
         O         O         0.31701   0.19184   0.70100   -0.342097           
         O         O         0.84062   0.69322   0.73842   -0.323755           
         B         B         0.33334   0.77809   0.73071   0.579679  
         B         B         0.81415   0.27858   0.71557   0.580392  
         B         B         0.31367   0.21860   0.71180   0.580032  
         B         B         0.83629   0.71982   0.74122   0.587884  
         O         O         0.37642   0.76618   0.74098   -0.340676           
         O         O         0.85705   0.26628   0.72690   -0.336245           
         O         O         0.35657   0.23093   0.72231   -0.336360           
         O         O         0.87799   0.73228   0.74352   -0.349382           
         C         C         0.52420   0.85531   0.73276   0.029594  
         C         C         0.47592   0.85586   0.72537   0.031041  
         C         C         0.45307   0.87976   0.72250   -0.235408           
         C         C         0.47823   0.90185   0.72542   0.174144  
         C         C         0.52491   0.90126   0.72923   0.174333  
         C         C         0.54839   0.87864   0.73261   -0.228128           
         C         C         0.01071   0.35407   0.74032   0.029400  
         C         C         0.01425   0.39997   0.74029   0.174175  
         C         C         0.03565   0.37697   0.73793   -0.226020           
         C         C         0.50800   0.14307   0.72461   0.030534  
         C         C         0.45988   0.14174   0.71793   0.028732  
         C         C         0.43817   0.11731   0.71427   -0.235488           
         C         C         0.46484   0.09567   0.71895   0.172800  
         C         C         0.51167   0.09728   0.72437   0.177378  
         C         C         0.53349   0.12029   0.72542   -0.228297           
         C         C         0.02828   0.64247   0.75818   0.028658  
         C         C         0.02758   0.59639   0.75431   0.176939  
         C         C         0.05233   0.61890   0.76188   -0.229693           
         C         C         0.96288   0.35526   0.73547   0.030399  
         C         C         0.94200   0.37960   0.73782   -0.235507           
         C         C         0.96828   0.40135   0.74086   0.171607  
         C         C         0.97959   0.64219   0.74758   0.029970  
         C         C         0.95506   0.61845   0.73811   -0.233502           
         C         C         0.97967   0.59617   0.74199   0.175936  
         O         O         0.54081   0.92602   0.72636   -0.321411           
         O         O         0.03192   0.42435   0.73929   -0.318366           
         O         O         0.52983   0.07309   0.72449   -0.318155           
         O         O         0.04285   0.57146   0.75280   -0.322410           
         B         B         0.50301   0.94174   0.72297   0.606212  
         B         B         0.99590   0.44083   0.74105   0.604505  
         B         B         0.49329   0.05640   0.72069   0.604494  
         B         B         0.00346   0.55601   0.74221   0.606188  
         O         O         0.46398   0.92714   0.72365   -0.346645           
         O         O         0.95599   0.42701   0.74221   -0.348431           
         O         O         0.45259   0.06994   0.71776   -0.349508           
         O         O         0.96378   0.57101   0.73467   -0.346558           
         H         H         0.61622   0.84767   0.74756   0.136638  
         H         H         0.52659   0.76546   0.72149   0.141629  
         H         H         0.46855   0.76624   0.74568   0.139037  
         H         H         0.38350   0.85007   0.71114   0.135289  
         H         H         0.41716   0.88092   0.72111   0.133911  
         H         H         0.58398   0.87908   0.73155   0.136798  
         H         H         0.10413   0.34589   0.76785   0.137541  
         H         H         0.01063   0.26423   0.72344   0.136690  
         H         H         0.07058   0.37680   0.73273   0.137212  
         H         H         0.59970   0.15129   0.73924   0.137205  
         H         H         0.51101   0.23284   0.72699   0.136529  
         H         H         0.44881   0.23150   0.72627   0.135553  
         H         H         0.36758   0.14686   0.70616   0.135818  
         H         H         0.40181   0.11543   0.70941   0.134794  
         H         H         0.56947   0.12043   0.72718   0.138840  
         H         H         0.12083   0.64983   0.77658   0.136681  
         H         H         0.03087   0.73236   0.73413   0.134817  
         H         H         0.08876   0.61819   0.76660   0.137897  
         H         H         0.95014   0.26552   0.73751   0.135910  
         H         H         0.86893   0.35025   0.71096   0.135679  
         H         H         0.90665   0.38130   0.73963   0.133852  
         H         H         0.97051   0.73207   0.74506   0.135128  
         H         H         0.88938   0.64836   0.74594   0.138283  
         H         H         0.91808   0.61752   0.72951   0.135806  
         C         C         0.79079   0.73337   0.73730   -0.259809           
         C         C         0.26994   0.23234   0.71878   -0.218301           
         C         C         0.77018   0.26473   0.72076   -0.218231           
         C         C         0.29002   0.76363   0.73616   -0.211584           
         C         C         0.74812   0.71935   0.72310   0.166298  
         C         C         0.22816   0.21855   0.70655   -0.068329           
         C         C         0.72805   0.27837   0.70584   -0.065744           
         C         C         0.24849   0.77701   0.72759   -0.071601           
         C         C         0.74668   0.77279   0.73980   -0.059800           
         C         C         0.23164   0.27187   0.74444   -0.067086           
         C         C         0.73167   0.22506   0.74380   -0.067030           
         C         C         0.25068   0.72352   0.74718   -0.068875           
         H         H         0.22709   0.19774   0.69307   0.108105  
         H         H         0.72669   0.29913   0.69061   0.107519  
         H         H         0.24789   0.79786   0.72078   0.108077  
         C         C         0.78854   0.75996   0.74531   -0.048283           
         C         C         0.27092   0.25926   0.73754   -0.060936           
         C         C         0.77120   0.23782   0.73900   -0.060525           
         C         C         0.29056   0.73665   0.74645   -0.052652           
         C         C         0.70500   0.73250   0.71559   0.175753  
         C         C         0.18864   0.23121   0.71248   -0.050235           
         C         C         0.68846   0.26556   0.71070   -0.050328           
         C         C         0.20867   0.76387   0.72868   -0.051212           
         H         H         0.82018   0.77128   0.75516   0.112357  
         H         H         0.30268   0.27014   0.74497   0.110992  
         H         H         0.80319   0.22712   0.74738   0.110070  
         H         H         0.32215   0.72612   0.75075   0.107969  
         C         C         0.70442   0.75982   0.72551   -0.260382           
         C         C         0.18986   0.25810   0.73247   -0.207649           
         C         C         0.68986   0.23875   0.73130   -0.209735           
         C         C         0.20916   0.73692   0.73871   -0.213282           
         H         H         0.15675   0.22023   0.70353   0.105314  
         H         H         0.65598   0.27624   0.69868   0.105098  
         H         H         0.17726   0.77437   0.72570   0.106193  
         H         H         0.74751   0.79365   0.74721   0.113952  
         H         H         0.23280   0.29266   0.75865   0.109123  
         H         H         0.73273   0.20427   0.75677   0.109412  
         H         H         0.25123   0.70267   0.75396   0.109879  
         C         C         0.49626   0.02704   0.71552   -0.265054           
         C         C         0.00199   0.52646   0.73775   -0.263770           
         C         C         0.50160   0.97116   0.71615   -0.264508           
         C         C         0.99835   0.47031   0.73841   -0.263051           
         C         C         0.53913   0.01430   0.72341   0.165361  
         C         C         0.04252   0.51146   0.74580   0.163182  
         C         C         0.54175   0.98651   0.72366   0.165886  
         C         C         0.04085   0.48362   0.74674   0.166453  
         C         C         0.46006   0.98431   0.70538   -0.053081           
         C         C         0.95932   0.48561   0.72895   -0.054477           
         C         C         0.45743   0.01138   0.70479   -0.054868           
         C         C         0.96109   0.51275   0.72883   -0.053204           
         N         N         0.58045   0.02586   0.73189   -0.344575           
         N         N         0.08557   0.52087   0.75500   -0.350866           
         N         N         0.58504   0.97759   0.73285   -0.350355           
         N         N         0.08269   0.47257   0.75664   -0.344097           
         S         S         0.61778   0.00284   0.74027   0.442317  
         S         S         0.11925   0.49602   0.76426   0.443504  
         N         N         0.74299   0.69345   0.71605   -0.348777           
         S         S         0.68825   0.68761   0.70133   0.442341  
         N         N         0.66795   0.71640   0.70229   -0.343539           
         H         H         0.42421   0.02033   0.69921   0.111336  
         H         H         0.92956   0.52335   0.72457   0.110830  
         H         H         0.42890   0.97325   0.70086   0.111018  
         H         H         0.92644   0.47628   0.72430   0.111501 

