
##########################################################################
#               Crystallographic Information Format file
#               Produced by PyCifRW module
#
#  This is a CIF file.  CIF has been adopted by the International
#  Union of Crystallography as the standard for data archiving and
#  transmission.
#
#  For information on this file format, follow the CIF links at
#  http://www.iucr.org
##########################################################################

data_image0

_cell_length_a                          37.6004
_cell_length_b                          56.4078
_cell_length_c                          7.9965
_cell_angle_alpha                       93.4017
_cell_angle_beta                        53.7887
_cell_angle_gamma                       89.665
_symmetry_space_group_name_H-M          'P 1'
_space_group_name_Hall                  'P 1'
loop_
  _atom_site_type_symbol
  _atom_site_label
  _atom_site_fract_x
  _atom_site_fract_y
  _atom_site_fract_z
  _atom_site_charge
         C         C         0.99721   0.63348   0.22440   0.028099  
         C         C         0.49759   0.13318   0.23413   0.030520  
         C         C         0.03104   0.36816   0.25590   0.030368  
         C         C         0.53020   0.86866   0.25490   0.029778  
         C         C         0.99249   0.36782   0.25993   0.028945  
         C         C         0.49151   0.86893   0.25987   0.029197  
         C         C         0.03588   0.63299   0.21937   0.029133  
         C         C         0.53646   0.13270   0.22702   0.027535  
         C         C         0.97901   0.61185   0.21637   -0.225612           
         C         C         0.47897   0.11152   0.22924   -0.231918           
         C         C         0.04850   0.39028   0.26160   -0.232438           
         C         C         0.54836   0.89050   0.26034   -0.232834           
         C         C         0.97297   0.38947   0.26070   -0.226624           
         C         C         0.47251   0.89092   0.26210   -0.230670           
         C         C         0.05483   0.61078   0.21510   -0.233138           
         C         C         0.55536   0.11055   0.22291   -0.233152           
         C         C         0.99829   0.59091   0.21205   0.173746  
         C         C         0.49820   0.09060   0.22570   0.173933  
         C         C         0.02818   0.41085   0.26488   0.168423  
         C         C         0.52845   0.91137   0.26622   0.170104  
         C         C         0.99115   0.41035   0.26384   0.175478  
         C         C         0.49122   0.91155   0.26660   0.173427  
         C         C         0.03545   0.59026   0.21228   0.168336  
         C         C         0.53577   0.09009   0.22276   0.169032  
         H         H         0.08354   0.60977   0.21590   0.134678  
         H         H         0.58411   0.10948   0.22326   0.134737  
         H         H         0.94460   0.39004   0.25731   0.137279  
         H         H         0.44416   0.89179   0.25855   0.134595  
         H         H         0.07707   0.39116   0.26342   0.134210  
         H         H         0.57732   0.89107   0.25908   0.135175  
         H         H         0.95025   0.61141   0.21609   0.136284  
         H         H         0.45006   0.11113   0.23000   0.134071  
         H         H         0.11059   0.63880   0.20291   0.134790  
         H         H         0.61118   0.13798   0.20807   0.135374  
         H         H         0.91774   0.36152   0.27989   0.136064  
         H         H         0.41607   0.86347   0.28271   0.134387  
         H         H         0.10699   0.36218   0.22914   0.134581  
         H         H         0.60556   0.86157   0.23295   0.134407  
         H         H         0.92151   0.63996   0.25140   0.135422  
         H         H         0.42135   0.13995   0.26582   0.135170  
         H         H         0.03732   0.71633   0.25903   0.134717  
         H         H         0.53925   0.21592   0.26272   0.135378  
         H         H         0.99010   0.28469   0.24530   0.135856  
         H         H         0.48925   0.78585   0.22488   0.136086  
         H         H         0.04044   0.28498   0.24398   0.134796  
         H         H         0.53675   0.78542   0.24398   0.134374  
         H         H         0.98862   0.71660   0.24471   0.135881  
         H         H         0.48975   0.21637   0.25352   0.136116  
         C         C         0.00929   0.47474   0.24315   -0.262948           
         C         C         0.51193   0.97590   0.25179   -0.220770           
         C         C         0.01311   0.52620   0.21645   -0.268374           
         C         C         0.51469   0.02596   0.23191   -0.228057           
         C         C         0.97703   0.48799   0.24122   0.166139  
         C         C         0.47973   0.98894   0.25275   -0.061599           
         C         C         0.04395   0.51259   0.21807   -0.054287           
         C         C         0.54702   0.01293   0.23012   -0.059629           
         C         C         0.97898   0.51358   0.22739   0.169308  
         C         C         0.48101   0.01353   0.24322   -0.056651           
         C         C         0.04224   0.48765   0.22980   -0.053828           
         C         C         0.54568   0.98835   0.24015   -0.056950           
         H         H         0.45374   0.97958   0.25942   0.106817  
         H         H         0.07014   0.52157   0.21256   0.113774  
         H         H         0.57311   0.02235   0.22240   0.106002  
         H         H         0.45594   0.02332   0.24357   0.107406  
         H         H         0.06733   0.47816   0.23126   0.112930  
         H         H         0.57087   0.97865   0.23948   0.105858  
         C         C         0.34491   0.78272   0.24054   -0.222008           
         C         C         0.84647   0.28042   0.25118   -0.220532           
         C         C         0.68361   0.21815   0.25165   -0.225345           
         C         C         0.18263   0.71934   0.24189   -0.224756           
         C         C         0.34473   0.22065   0.26989   -0.225447           
         C         C         0.84358   0.71997   0.25685   -0.226113           
         C         C         0.68201   0.78037   0.22618   -0.228066           
         C         C         0.18542   0.28210   0.22927   -0.227495           
         C         C         0.34649   0.75777   0.22983   -0.099555           
         C         C         0.84689   0.25553   0.24769   -0.101482           
         C         C         0.68374   0.24307   0.25250   -0.098612           
         C         C         0.18175   0.74432   0.24923   -0.098078           
         C         C         0.34771   0.24503   0.24006   -0.093968           
         C         C         0.84679   0.74413   0.21990   -0.095062           
         C         C         0.67843   0.75617   0.26440   -0.099116           
         C         C         0.18274   0.25765   0.25776   -0.096228           
         C         C         0.27875   0.78283   0.24920   0.065768  
         C         C         0.78168   0.28090   0.24891   0.065303  
         C         C         0.74853   0.21766   0.25375   0.069011  
         C         C         0.24852   0.71923   0.23699   0.066995  
         C         C         0.27768   0.22041   0.28572   0.060409  
         C         C         0.77527   0.71934   0.28320   0.060979  
         C         C         0.75055   0.78069   0.19795   0.070310  
         C         C         0.25234   0.28247   0.21527   0.068064  
         H         H         0.37267   0.74823   0.22279   0.111201  
         H         H         0.87194   0.24591   0.24876   0.111816  
         H         H         0.65912   0.25271   0.24838   0.111770  
         H         H         0.15641   0.75392   0.25020   0.111410  
         H         H         0.37488   0.25442   0.22216   0.108329  
         H         H         0.87452   0.75358   0.19515   0.108580  
         H         H         0.65074   0.74676   0.28826   0.109683  
         H         H         0.15612   0.24809   0.27180   0.111222  
         C         C         0.31102   0.79498   0.24996   -0.112527           
         C         C         0.81389   0.29284   0.25141   -0.112370           
         C         C         0.71594   0.20575   0.25338   -0.105780           
         C         C         0.21605   0.70712   0.23669   -0.104782           
         C         C         0.30967   0.20863   0.29258   -0.102917           
         C         C         0.80790   0.70779   0.28699   -0.100232           
         C         C         0.71816   0.79232   0.19294   -0.106878           
         C         C         0.22041   0.29420   0.20755   -0.103392           
         C         C         0.31454   0.74478   0.23125   0.067462  
         C         C         0.81490   0.24274   0.24782   0.068221  
         C         C         0.71573   0.25580   0.25221   0.068420  
         C         C         0.21342   0.75723   0.25028   0.066925  
         C         C         0.31661   0.25761   0.23129   0.064685  
         C         C         0.81544   0.75636   0.21112   0.065271  
         C         C         0.71000   0.74379   0.27134   0.068802  
         C         C         0.21383   0.24517   0.26730   0.070158  
         H         H         0.30998   0.81433   0.25633   0.109849  
         H         H         0.81388   0.31216   0.25214   0.109585  
         H         H         0.71571   0.18645   0.25459   0.109455  
         H         H         0.21686   0.68779   0.23264   0.108873  
         H         H         0.30731   0.18970   0.31519   0.111398  
         H         H         0.80546   0.68896   0.31351   0.112352  
         H         H         0.72122   0.81101   0.16206   0.108337  
         H         H         0.22275   0.31314   0.18524   0.108802  
         C         C         0.28009   0.75736   0.24189   -0.000168           
         C         C         0.78169   0.25548   0.24975   -0.000280           
         C         C         0.74870   0.24305   0.25234   0.003690  
         C         C         0.24735   0.74467   0.24397   0.005591  
         C         C         0.28102   0.24528   0.25470   0.004150  
         C         C         0.77894   0.74398   0.24459   0.003893  
         C         C         0.74644   0.75614   0.23905   0.010131  
         C         C         0.24904   0.25762   0.24667   0.008935  
         C         C         0.28328   0.70710   0.22775   -0.137363           
         C         C         0.78201   0.20536   0.25329   -0.138534           
         C         C         0.74855   0.29319   0.24645   -0.134104           
         C         C         0.24441   0.79495   0.25511   -0.135409           
         C         C         0.28848   0.29438   0.19147   -0.145088           
         C         C         0.78796   0.79251   0.16098   -0.142484           
         C         C         0.73850   0.70736   0.31406   -0.134456           
         C         C         0.24201   0.20840   0.30617   -0.135023           
         C         C         0.21324   0.78269   0.25471   -0.129608           
         C         C         0.71690   0.28118   0.24817   -0.130679           
         C         C         0.81403   0.21734   0.24921   -0.136990           
         C         C         0.31504   0.71931   0.22411   -0.137450           
         C         C         0.21174   0.22019   0.29483   -0.130015           
         C         C         0.70744   0.71903   0.30747   -0.131289           
         C         C         0.81900   0.78089   0.16791   -0.132414           
         C         C         0.31919   0.28250   0.19950   -0.131416           
         H         H         0.28385   0.68777   0.22426   0.110112  
         H         H         0.78111   0.18612   0.25829   0.111175  
         H         H         0.74951   0.31242   0.24123   0.112801  
         H         H         0.24406   0.81427   0.25783   0.111964  
         H         H         0.29086   0.31327   0.16734   0.108561  
         H         H         0.79096   0.81111   0.12752   0.108969  
         H         H         0.73597   0.68861   0.34264   0.110345  
         H         H         0.23999   0.18948   0.32839   0.110236  
         H         H         0.18787   0.79203   0.25448   0.110008  
         H         H         0.69230   0.29062   0.24285   0.111181  
         H         H         0.83907   0.20780   0.25069   0.109740  
         H         H         0.34110   0.70990   0.21851   0.109528  
         H         H         0.18510   0.21086   0.30727   0.109866  
         H         H         0.67984   0.70971   0.32957   0.109147  
         H         H         0.84720   0.79002   0.14079   0.108411  
         H         H         0.34636   0.29175   0.18245   0.107672  
         N         N         0.94235   0.47890   0.25353   -0.349909           
         N         N         0.94561   0.52333   0.22970   -0.338345           
         S         S         0.91580   0.50144   0.24802   0.435270  
         O         O         0.98553   0.56810   0.20857   -0.317475           
         O         O         0.48528   0.06765   0.22647   -0.334843           
         O         O         0.03933   0.43434   0.26468   -0.347089           
         O         O         0.54066   0.93455   0.26651   -0.340698           
         O         O         0.97823   0.43316   0.26024   -0.316205           
         O         O         0.47912   0.93475   0.26511   -0.335852           
         O         O         0.04680   0.56669   0.21125   -0.347009           
         O         O         0.54748   0.06670   0.22238   -0.340728           
         B         B         0.01512   0.55339   0.21112   0.598034  
         B         B         0.51577   0.05311   0.22606   0.581866  
         B         B         0.00832   0.44769   0.25847   0.601243  
         B         B         0.51029   0.94874   0.26224   0.583193  
         C         C         0.97611   0.65599   0.23872   0.031722  
         C         C         0.99490   0.67782   0.24096   0.025842  
         C         C         0.93686   0.65616   0.25101   -0.230303           
         C         C         0.91863   0.67763   0.25780   0.179451  
         C         C         0.93788   0.69903   0.25166   0.171711  
         C         C         0.97504   0.69965   0.24659   -0.224716           
         C         C         0.47671   0.15575   0.24826   0.029944  
         C         C         0.49579   0.17754   0.24933   0.025586  
         C         C         0.43722   0.15606   0.26266   -0.229453           
         C         C         0.41899   0.17760   0.27072   0.177607  
         C         C         0.43839   0.19894   0.26501   0.172011  
         C         C         0.47587   0.19945   0.25709   -0.224457           
         C         C         0.05231   0.34579   0.24507   0.029583  
         C         C         0.03362   0.32372   0.24631   0.032282  
         C         C         0.09171   0.34583   0.23168   -0.221000           
         C         C         0.11036   0.32450   0.22555   0.174488  
         C         C         0.09132   0.30293   0.23349   0.178311  
         C         C         0.05394   0.30203   0.24038   -0.230350           
         C         C         0.55081   0.84603   0.24433   0.030020  
         C         C         0.53166   0.82426   0.24330   0.032507  
         C         C         0.58995   0.84545   0.23325   -0.219894           
         C         C         0.60795   0.82381   0.22565   0.175751  
         C         C         0.58835   0.80252   0.23162   0.175353  
         C         C         0.55099   0.80226   0.23850   -0.231376           
         C         C         0.97320   0.34537   0.26287   0.032594  
         C         C         0.99361   0.32353   0.25595   0.027394  
         C         C         0.93412   0.34527   0.27369   -0.230472           
         C         C         0.91748   0.32375   0.27150   0.179272  
         C         C         0.93808   0.30231   0.25933   0.170716  
         C         C         0.97521   0.30168   0.25442   -0.222445           
         C         C         0.47177   0.84674   0.26069   0.030556  
         C         C         0.49213   0.82464   0.24937   0.028443  
         C         C         0.43261   0.84705   0.27208   -0.230663           
         C         C         0.41607   0.82573   0.26432   0.178609  
         C         C         0.43694   0.80410   0.24594   0.171874  
         C         C         0.47408   0.80302   0.24043   -0.224180           
         C         C         0.05509   0.65533   0.22191   0.028610  
         C         C         0.03456   0.67749   0.23442   0.034867  
         C         C         0.09405   0.65520   0.21253   -0.220360           
         C         C         0.11062   0.67655   0.21965   0.171429  
         C         C         0.08993   0.69826   0.23741   0.177979  
         C         C         0.05260   0.69920   0.24364   -0.234401           
         C         C         0.55600   0.15493   0.22817   0.031536  
         C         C         0.53565   0.17712   0.24086   0.032656  
         C         C         0.59506   0.15453   0.21760   -0.222074           
         C         C         0.61185   0.17575   0.22527   0.170739  
         C         C         0.59130   0.19754   0.24339   0.179685  
         C         C         0.55407   0.19871   0.24901   -0.235264           
         O         O         0.91392   0.71770   0.25018   -0.344215           
         O         O         0.41434   0.21772   0.26597   -0.343287           
         O         O         0.11570   0.28453   0.23362   -0.334797           
         O         O         0.61205   0.78364   0.23089   -0.333882           
         O         O         0.91575   0.28346   0.24959   -0.341489           
         O         O         0.41473   0.78554   0.23227   -0.341244           
         O         O         0.11249   0.71674   0.24909   -0.336113           
         O         O         0.61385   0.21588   0.25662   -0.334624           
         B         B         0.87912   0.70688   0.25872   0.577796  
         B         B         0.37963   0.20708   0.27332   0.576998  
         B         B         0.15054   0.29537   0.22284   0.585641  
         B         B         0.64711   0.79396   0.22175   0.589206  
         B         B         0.88068   0.29415   0.25785   0.575550  
         B         B         0.37941   0.79646   0.24469   0.575692  
         B         B         0.14809   0.70583   0.23469   0.586826  
         B         B         0.64925   0.20481   0.24264   0.584340  
         O         O         0.88131   0.68216   0.26726   -0.338688           
         O         O         0.38155   0.18230   0.28127   -0.341100           
         O         O         0.14783   0.32018   0.21609   -0.340094           
         O         O         0.64510   0.81885   0.21700   -0.340832           
         O         O         0.88084   0.31908   0.27599   -0.341586           
         O         O         0.37941   0.82137   0.26807   -0.341427           
         O         O         0.14729   0.68089   0.21618   -0.342673           
         O         O         0.64844   0.17987   0.22283   -0.341879           
         C         C         0.96683   0.63351   0.74399   0.030427  
         C         C         0.46757   0.13227   0.75083   0.029614  
         C         C         0.00174   0.36754   0.77072   0.028561  
         C         C         0.50054   0.86833   0.77080   0.028058  
         C         C         0.96294   0.36729   0.77693   0.027955  
         C         C         0.46151   0.86843   0.77917   0.028301  
         C         C         0.00570   0.63256   0.73757   0.028174  
         C         C         0.50632   0.13167   0.74504   0.029899  
         C         C         0.94779   0.61202   0.73897   -0.228337           
         C         C         0.44893   0.11063   0.74541   -0.232513           
         C         C         0.01959   0.38960   0.77432   -0.232211           
         C         C         0.51875   0.89018   0.77492   -0.229610           
         C         C         0.94338   0.38902   0.77877   -0.229808           
         C         C         0.44172   0.89041   0.78614   -0.233240           
         C         C         0.02425   0.61023   0.73232   -0.231847           
         C         C         0.52502   0.10949   0.74167   -0.230757           
         C         C         0.96714   0.59083   0.73132   0.170635  
         C         C         0.46851   0.08961   0.73888   0.169663  
         C         C         -0.00028  0.41018   0.77524   0.176125  
         C         C         0.49877   0.91092   0.78050   0.172052  
         C         C         0.96227   0.40981   0.77735   0.172891  
         C         C         0.46096   0.91106   0.78530   0.170548  
         C         C         0.00469   0.58994   0.72826   0.176287  
         C         C         0.50582   0.08903   0.73781   0.173766  
         H         H         0.05311   0.60885   0.73152   0.133595  
         H         H         0.55362   0.10836   0.74311   0.134499  
         H         H         0.91469   0.38970   0.77784   0.137435  
         H         H         0.41265   0.89130   0.78825   0.134948  
         H         H         0.04844   0.39045   0.77379   0.133998  
         H         H         0.54808   0.89084   0.77070   0.134369  
         H         H         0.91883   0.61194   0.73997   0.137474  
         H         H         0.42000   0.11027   0.74636   0.134809  
         H         H         0.08088   0.63699   0.72071   0.134955  
         H         H         0.58109   0.13659   0.72766   0.134694  
         H         H         0.88809   0.36099   0.79751   0.136137  
         H         H         0.38618   0.86231   0.80242   0.135147  
         H         H         0.07741   0.36154   0.74753   0.134317  
         H         H         0.57527   0.86240   0.75172   0.134102  
         H         H         0.89076   0.64190   0.77388   0.135642  
         H         H         0.39133   0.13973   0.78184   0.134507  
         H         H         0.01266   0.71546   0.75738   0.135467  
         H         H         0.51259   0.21466   0.75840   0.136117  
         H         H         0.96212   0.28397   0.74550   0.135132  
         H         H         0.46289   0.78511   0.72472   0.135783  
         H         H         0.01152   0.28441   0.75320   0.135374  
         H         H         0.51128   0.78516   0.74298   0.136146  
         H         H         0.96491   0.71672   0.74194   0.135018  
         H         H         0.46206   0.21553   0.76101   0.134927  
         C         C         0.98096   0.47429   0.75582   -0.266238           
         C         C         0.48115   0.97525   0.77486   -0.230212           
         C         C         0.98353   0.52586   0.72916   -0.263820           
         C         C         0.48422   0.02505   0.75098   -0.221551           
         C         C         0.94831   0.48729   0.75462   0.152812  
         C         C         0.44914   0.98809   0.77324   -0.059469           
         C         C         0.01454   0.51255   0.73178   -0.051506           
         C         C         0.51602   0.01221   0.75429   -0.061554           
         C         C         0.94978   0.51287   0.74026   0.161130  
         C         C         0.45065   0.01262   0.76120   -0.057378           
         C         C         0.01347   0.48761   0.74339   -0.055197           
         C         C         0.51458   0.98768   0.76572   -0.055676           
         H         H         0.42329   0.97857   0.77984   0.106222  
         H         H         0.04024   0.52182   0.72845   0.112575  
         H         H         0.54168   0.02169   0.74968   0.107249  
         H         H         0.42585   0.02233   0.75903   0.105407  
         H         H         0.03857   0.47848   0.74707   0.113707  
         H         H         0.53927   0.97798   0.76876   0.107268  
         C         C         0.31694   0.78148   0.74824   -0.224773           
         C         C         0.81834   0.27978   0.75260   -0.225630           
         C         C         0.65596   0.21668   0.75284   -0.220095           
         C         C         0.15617   0.71699   0.74605   -0.221613           
         C         C         0.31641   0.22060   0.77845   -0.227372           
         C         C         0.81906   0.72365   0.76198   -0.226919           
         C         C         0.65598   0.78274   0.73413   -0.225448           
         C         C         0.15668   0.28142   0.73761   -0.223923           
         C         C         0.31851   0.75649   0.73931   -0.097303           
         C         C         0.81854   0.25483   0.75153   -0.099276           
         C         C         0.65564   0.24156   0.75512   -0.098900           
         C         C         0.15432   0.74193   0.75636   -0.099719           
         C         C         0.31904   0.24502   0.74920   -0.095939           
         C         C         0.82212   0.74785   0.72393   -0.100018           
         C         C         0.65315   0.75861   0.77161   -0.094362           
         C         C         0.15383   0.25706   0.76830   -0.093850           
         C         C         0.25128   0.78110   0.75186   0.068952  
         C         C         0.75358   0.27981   0.74927   0.068858  
         C         C         0.72084   0.21642   0.75492   0.064956  
         C         C         0.22212   0.71728   0.73916   0.066738  
         C         C         0.24947   0.22003   0.79264   0.068642  
         C         C         0.75031   0.72286   0.79187   0.070133  
         C         C         0.72441   0.78385   0.70649   0.061291  
         C         C         0.22379   0.28193   0.72116   0.061524  
         H         H         0.34401   0.74708   0.73844   0.111363  
         H         H         0.84322   0.24528   0.75584   0.112441  
         H         H         0.63070   0.25114   0.75302   0.108568  
         H         H         0.12820   0.75133   0.76208   0.109552  
         H         H         0.34566   0.25463   0.73487   0.111484  
         H         H         0.84961   0.75751   0.69956   0.109274  
         H         H         0.62556   0.74899   0.79652   0.108040  
         H         H         0.12675   0.24758   0.78636   0.107511  
         C         C         0.28335   0.79347   0.75347   -0.105319           
         C         C         0.78591   0.29194   0.75015   -0.106645           
         C         C         0.68856   0.20437   0.75325   -0.113131           
         C         C         0.19008   0.70492   0.73770   -0.111726           
         C         C         0.28147   0.20841   0.80044   -0.103324           
         C         C         0.78302   0.71149   0.79586   -0.107233           
         C         C         0.69159   0.79513   0.70259   -0.101696           
         C         C         0.19171   0.29358   0.71409   -0.103899           
         C         C         0.28716   0.74333   0.73750   0.067839  
         C         C         0.78674   0.24190   0.75141   0.069039  
         C         C         0.68756   0.25445   0.75462   0.067702  
         C         C         0.18589   0.75511   0.75638   0.068346  
         C         C         0.28789   0.25741   0.73946   0.069017  
         C         C         0.79020   0.75999   0.71796   0.069056  
         C         C         0.68476   0.74662   0.78001   0.066273  
         C         C         0.18499   0.24463   0.77741   0.065527  
         H         H         0.28199   0.81281   0.75935   0.109191  
         H         H         0.78579   0.31124   0.74861   0.109958  
         H         H         0.68859   0.18506   0.75340   0.109422  
         H         H         0.19141   0.68557   0.73140   0.109508  
         H         H         0.27922   0.18950   0.82332   0.109084  
         H         H         0.78037   0.69280   0.82609   0.109276  
         H         H         0.69389   0.81388   0.67404   0.111491  
         H         H         0.19403   0.31248   0.69068   0.111426  
         C         C         0.25295   0.75566   0.74438   0.003838  
         C         C         0.75363   0.25443   0.75094   0.003886  
         C         C         0.72077   0.24184   0.75344   0.000968  
         C         C         0.22044   0.74274   0.74625   0.000460  
         C         C         0.25274   0.24485   0.76036   0.008849  
         C         C         0.75392   0.74738   0.75083   0.010037  
         C         C         0.72112   0.75924   0.74579   0.004187  
         C         C         0.22063   0.25707   0.75257   0.003951  
         C         C         0.25661   0.70541   0.73376   -0.135757           
         C         C         0.75423   0.20434   0.75679   -0.134088           
         C         C         0.72016   0.29195   0.74837   -0.137449           
         C         C         0.21630   0.79302   0.76161   -0.139115           
         C         C         0.25939   0.29405   0.70044   -0.135763           
         C         C         0.76106   0.79609   0.67454   -0.134650           
         C         C         0.71302   0.71077   0.82996   -0.140367           
         C         C         0.21316   0.20804   0.81900   -0.145187           
         C         C         0.18480   0.78059   0.76491   -0.136661           
         C         C         0.68837   0.27983   0.75180   -0.137419           
         C         C         0.78574   0.21650   0.75512   -0.130413           
         C         C         0.28775   0.71787   0.73289   -0.129013           
         C         C         0.18225   0.21982   0.81182   -0.133008           
         C         C         0.68166   0.72212   0.82376   -0.133847           
         C         C         0.79232   0.78473   0.68149   -0.132454           
         C         C         0.28981   0.28237   0.71160   -0.130345           
         H         H         0.25719   0.68609   0.73193   0.111701  
         H         H         0.75354   0.18509   0.76163   0.111816  
         H         H         0.72094   0.31118   0.74257   0.111578  
         H         H         0.21546   0.81234   0.76534   0.110871  
         H         H         0.26129   0.31297   0.67847   0.110405  
         H         H         0.76318   0.81483   0.64548   0.109914  
         H         H         0.71027   0.69220   0.86455   0.109726  
         H         H         0.21078   0.18921   0.84505   0.109477  
         H         H         0.15846   0.78981   0.77150   0.109921  
         H         H         0.66350   0.28919   0.74808   0.109842  
         H         H         0.81036   0.20712   0.76065   0.110831  
         H         H         0.31344   0.70871   0.73188   0.110249  
         H         H         0.15471   0.21059   0.83262   0.108526  
         H         H         0.65349   0.71279   0.85232   0.108189  
         H         H         0.81971   0.79431   0.65945   0.109151  
         H         H         0.31637   0.29179   0.69906   0.109776  
         N         N         0.91378   0.47792   0.76696   -0.342899           
         N         N         0.91624   0.52232   0.74235   -0.342700           
         S         S         0.88676   0.50017   0.76188   0.434640  
         O         O         0.95440   0.56793   0.72767   -0.324276           
         O         O         0.45583   0.06659   0.73756   -0.339914           
         O         O         0.01181   0.43346   0.76981   -0.339297           
         O         O         0.51133   0.93398   0.77840   -0.334582           
         O         O         0.94980   0.43273   0.77323   -0.324486           
         O         O         0.44874   0.93432   0.78511   -0.341956           
         O         O         0.01646   0.56646   0.72369   -0.339591           
         O         O         0.51760   0.06567   0.73698   -0.336044           
         B         B         0.98471   0.55313   0.72596   0.603156  
         B         B         0.48605   0.05210   0.74012   0.583137  
         B         B         0.98060   0.44713   0.76824   0.602263  
         B         B         0.48031   0.94817   0.78044   0.583070  
         C         C         0.94721   0.65644   0.75329   0.028729  
         C         C         0.96777   0.67785   0.74901   0.033558  
         C         C         0.90779   0.65767   0.76703   -0.219583           
         C         C         0.89128   0.67953   0.76876   0.176314  
         C         C         0.91240   0.70044   0.75637   0.176379  
         C         C         0.94978   0.70013   0.74949   -0.232847           
         C         C         0.44719   0.15501   0.76258   0.029283  
         C         C         0.46701   0.17667   0.76007   0.030860  
         C         C         0.40761   0.15572   0.77777   -0.219743           
         C         C         0.38996   0.17740   0.78402   0.175210  
         C         C         0.40997   0.19864   0.77517   0.175675  
         C         C         0.44766   0.19876   0.76605   -0.228887           
         C         C         0.02317   0.34519   0.75842   0.030947  
         C         C         0.00475   0.32311   0.75688   0.024903  
         C         C         0.06239   0.34523   0.74675   -0.230418           
         C         C         0.08121   0.32382   0.73843   0.178130  
         C         C         0.06257   0.30226   0.74216   0.171701  
         C         C         0.02515   0.30142   0.74964   -0.222996           
         C         C         0.52196   0.84593   0.75646   0.030308  
         C         C         0.50398   0.82392   0.75065   0.027448  
         C         C         0.56084   0.84604   0.74721   -0.230457           
         C         C         0.57986   0.82468   0.73687   0.178907  
         C         C         0.56152   0.80309   0.73835   0.171756  
         C         C         0.52452   0.80221   0.74222   -0.225043           
         C         C         0.94388   0.34479   0.77766   0.030526  
         C         C         0.96481   0.32288   0.76573   0.032932  
         C         C         0.90479   0.34469   0.78827   -0.221071           
         C         C         0.88859   0.32323   0.78097   0.170725  
         C         C         0.90966   0.30171   0.76405   0.179736  
         C         C         0.94688   0.30102   0.75874   -0.234987           
         C         C         0.44282   0.84599   0.77525   0.030138  
         C         C         0.46425   0.82395   0.75769   0.032803  
         C         C         0.40351   0.84599   0.78767   -0.221333           
         C         C         0.38758   0.82458   0.77717   0.171731  
         C         C         0.40926   0.80297   0.75320   0.177965  
         C         C         0.44685   0.80217   0.74495   -0.234920           
         C         C         0.02646   0.65441   0.73501   0.031014  
         C         C         0.00741   0.67679   0.74184   0.027821  
         C         C         0.06541   0.65356   0.72561   -0.231952           
         C         C         0.08316   0.67464   0.72872   0.180477  
         C         C         0.06374   0.69653   0.74106   0.170775  
         C         C         0.02672   0.69810   0.74615   -0.224201           
         C         C         0.52660   0.15373   0.74263   0.030670  
         C         C         0.50711   0.17597   0.74966   0.029202  
         C         C         0.56555   0.15314   0.73297   -0.231236           
         C         C         0.58306   0.17431   0.73590   0.179347  
         C         C         0.56354   0.19607   0.74622   0.172816  
         C         C         0.52650   0.19741   0.75091   -0.225827           
         O         O         0.88980   0.71961   0.75313   -0.334665           
         O         O         0.38628   0.21749   0.77500   -0.334299           
         O         O         0.08703   0.28369   0.74112   -0.343201           
         O         O         0.58590   0.78459   0.73880   -0.344012           
         O         O         0.88774   0.28303   0.75028   -0.335237           
         O         O         0.38728   0.78443   0.73804   -0.335255           
         O         O         0.08691   0.71477   0.75115   -0.341261           
         O         O         0.58682   0.21444   0.75418   -0.341520           
         B         B         0.85384   0.70992   0.76673   0.589131  
         B         B         0.35097   0.20716   0.78629   0.585376  
         B         B         0.12138   0.29465   0.73497   0.577116  
         B         B         0.62012   0.79565   0.73353   0.578115  
         B         B         0.85224   0.29360   0.76246   0.586226  
         B         B         0.35103   0.79520   0.75719   0.585848  
         B         B         0.12149   0.70338   0.74230   0.576514  
         B         B         0.62126   0.20324   0.74772   0.575927  
         O         O         0.85430   0.68508   0.77772   -0.340869           
         O         O         0.35268   0.18232   0.79387   -0.340344           
         O         O         0.11860   0.31940   0.72936   -0.342626           
         O         O         0.61711   0.82037   0.72864   -0.339772           
         O         O         0.85228   0.31861   0.78210   -0.342720           
         O         O         0.35081   0.82015   0.78171   -0.342345           
         O         O         0.12000   0.67852   0.72465   -0.341794           
         O         O         0.61981   0.17838   0.73212   -0.341683 

