
##########################################################################
#               Crystallographic Information Format file
#               Produced by PyCifRW module
#
#  This is a CIF file.  CIF has been adopted by the International
#  Union of Crystallography as the standard for data archiving and
#  transmission.
#
#  For information on this file format, follow the CIF links at
#  http://www.iucr.org
##########################################################################

data_image0

_cell_length_a                          56.1148
_cell_length_b                          37.6823
_cell_length_c                          7.97694
_cell_angle_alpha                       125.754
_cell_angle_beta                        86.3788
_cell_angle_gamma                       89.745
_symmetry_space_group_name_H-M          'P 1'
_space_group_name_Hall                  'P 1'
loop_
  _atom_site_type_symbol
  _atom_site_label
  _atom_site_fract_x
  _atom_site_fract_y
  _atom_site_fract_z
  _atom_site_charge
         C         C         0.63589   0.01499   0.26355   0.029162  
         C         C         0.61455   0.03674   0.27344   -0.228882           
         C         C         0.59311   0.01956   0.27398   0.171842  
         C         C         0.13377   0.53486   0.26657   0.027733  
         C         C         0.13401   0.49673   0.26482   0.030511  
         C         C         0.11214   0.47932   0.27756   -0.231087           
         C         C         0.11157   0.55394   0.27043   -0.232983           
         C         C         0.09123   0.49869   0.28111   0.172034  
         C         C         0.09086   0.53527   0.27676   0.167987  
         C         C         0.36961   0.99478   0.25498   0.029388  
         C         C         0.39164   0.97618   0.25569   -0.230302           
         C         C         0.41243   0.99473   0.25115   0.176105  
         C         C         0.87036   0.47055   0.22351   0.027366  
         C         C         0.86918   0.51014   0.23809   0.031014  
         C         C         0.89043   0.53133   0.24784   -0.231208           
         C         C         0.89299   0.45229   0.21682   -0.234793           
         C         C         0.91174   0.51294   0.24330   0.172589  
         C         C         0.91313   0.47397   0.22730   0.172787  
         C         C         0.36938   0.03316   0.25789   0.027457  
         C         C         0.39143   0.05135   0.25356   -0.231547           
         C         C         0.41240   0.03166   0.24986   0.169253  
         C         C         0.63483   0.97586   0.25343   0.032127  
         C         C         0.61212   0.95892   0.25215   -0.235339           
         C         C         0.59186   0.98108   0.26190   0.172982  
         O         O         0.57037   0.03471   0.27900   -0.338479           
         O         O         0.06729   0.54706   0.27800   -0.340340           
         O         O         0.43564   0.98235   0.25182   -0.336554           
         O         O         0.93687   0.46409   0.23214   -0.341385           
         O         O         0.43584   0.04349   0.24918   -0.341384           
         O         O         0.93431   0.52856   0.25737   -0.337965           
         O         O         0.56802   0.97096   0.25939   -0.343278           
         O         O         0.06817   0.48649   0.28627   -0.334812           
         B         B         0.55502   0.00429   0.26932   0.587872  
         B         B         0.05362   0.51635   0.28234   0.583238  
         B         B         0.44996   0.01292   0.25273   0.584416  
         B         B         0.94959   0.49834   0.25209   0.585661  
         C         C         0.65879   0.03251   0.25900   0.032990  
         C         C         0.68047   0.01052   0.24342   0.025431  
         C         C         0.65950   0.07116   0.26757   -0.226310           
         C         C         0.68136   0.08579   0.25478   0.179203  
         C         C         0.70270   0.06354   0.23242   0.170977  
         C         C         0.70278   0.02652   0.22788   -0.220890           
         C         C         0.15633   0.55349   0.26147   0.029982  
         C         C         0.17849   0.53294   0.25016   0.032677  
         C         C         0.15638   0.59215   0.26928   -0.219662           
         C         C         0.17791   0.60848   0.26182   0.170902  
         C         C         0.19964   0.58764   0.24423   0.177892  
         C         C         0.20042   0.55058   0.23962   -0.236713           
         C         C         0.34733   0.97461   0.25183   0.032145  
         C         C         0.32511   0.99407   0.25719   0.028801  
         C         C         0.34769   0.93580   0.24283   -0.232588           
         C         C         0.32625   0.91860   0.24591   0.180206  
         C         C         0.30449   0.93829   0.25622   0.173034  
         C         C         0.30342   0.97505   0.25913   -0.225209           
         C         C         0.84823   0.45020   0.22293   0.026014  
         C         C         0.82562   0.47036   0.24064   0.034533  
         C         C         0.84903   0.41097   0.20973   -0.223582           
         C         C         0.82788   0.39387   0.21911   0.172687  
         C         C         0.80574   0.41454   0.24521   0.177614  
         C         C         0.80413   0.45218   0.25528   -0.232923           
         C         C         0.34657   0.05333   0.26609   0.030810  
         C         C         0.32472   0.03378   0.26503   0.034010  
         C         C         0.34584   0.09249   0.27800   -0.220076           
         C         C         0.32400   0.11029   0.28540   0.174701  
         C         C         0.30268   0.09036   0.27771   0.178095  
         C         C         0.30256   0.05299   0.27022   -0.231864           
         C         C         0.84630   0.52934   0.24503   0.030720  
         C         C         0.82464   0.50979   0.24648   0.025087  
         C         C         0.84565   0.56764   0.25076   -0.230279           
         C         C         0.82384   0.58505   0.25774   0.180843  
         C         C         0.80253   0.56555   0.25456   0.171268  
         C         C         0.80242   0.52846   0.24956   -0.224609           
         C         C         0.65703   0.95394   0.24397   0.028068  
         C         C         0.67952   0.97142   0.24011   0.032732  
         C         C         0.65656   0.91533   0.23709   -0.216292           
         C         C         0.67787   0.89577   0.22757   0.172964  
         C         C         0.69973   0.91381   0.22984   0.176308  
         C         C         0.70105   0.95082   0.23504   -0.234044           
         C         C         0.15650   0.47530   0.24903   0.029804  
         C         C         0.17857   0.49368   0.24594   0.026220  
         C         C         0.15642   0.43613   0.23653   -0.230483           
         C         C         0.17785   0.41795   0.23182   0.176370  
         C         C         0.19946   0.43699   0.23849   0.172828  
         C         C         0.20039   0.47380   0.24165   -0.224139           
         O         O         0.72183   0.08463   0.21499   -0.343839           
         O         O         0.21835   0.60989   0.23171   -0.334100           
         O         O         0.28580   0.91530   0.26409   -0.341675           
         O         O         0.78766   0.39187   0.26273   -0.338569           
         O         O         0.28362   0.11370   0.27730   -0.334923           
         O         O         0.78353   0.58870   0.25114   -0.343833           
         O         O         0.71815   0.88946   0.22962   -0.335118           
         O         O         0.21797   0.41318   0.24273   -0.344106           
         B         B         0.71145   0.12094   0.23281   0.582503  
         B         B         0.20757   0.64547   0.24607   0.584632  
         B         B         0.29685   0.88077   0.25757   0.576412  
         B         B         0.79936   0.35637   0.24337   0.584333  
         B         B         0.29381   0.14891   0.28754   0.586208  
         B         B         0.79404   0.62323   0.25616   0.578879  
         B         B         0.70717   0.85545   0.22442   0.588813  
         B         B         0.20696   0.37876   0.23525   0.577753  
         O         O         0.68638   0.12199   0.25802   -0.344422           
         O         O         0.18242   0.64498   0.26499   -0.342098           
         O         O         0.32189   0.88196   0.24182   -0.341233           
         O         O         0.82423   0.35695   0.21444   -0.342940           
         O         O         0.31886   0.14737   0.29452   -0.340689           
         O         O         0.81898   0.62146   0.26178   -0.339474           
         O         O         0.68216   0.85872   0.22179   -0.343483           
         O         O         0.18216   0.38084   0.22415   -0.340701           
         H         H         0.61043   0.92940   0.24492   0.134619  
         H         H         0.63983   0.90157   0.24255   0.133890  
         H         H         0.71835   0.96384   0.23847   0.135052  
         H         H         0.11156   0.45138   0.28373   0.133717  
         H         H         0.11070   0.58207   0.26553   0.134819  
         H         H         0.13994   0.60854   0.27759   0.134928  
         H         H         0.14012   0.42052   0.23320   0.136029  
         H         H         0.21756   0.53516   0.22428   0.135114  
         H         H         0.21750   0.48729   0.24410   0.135677  
         H         H         0.39207   0.08011   0.25353   0.135087  
         H         H         0.36201   0.10817   0.27823   0.134252  
         H         H         0.28570   0.03868   0.26574   0.135986  
         H         H         0.89026   0.56168   0.26149   0.135251  
         H         H         0.89458   0.42272   0.20953   0.133862  
         H         H         0.86580   0.39502   0.19808   0.134866  
         H         H         0.86165   0.58290   0.24428   0.134327  
         H         H         0.78675   0.46778   0.27842   0.135042  
         H         H         0.78563   0.51376   0.24354   0.135285  
         H         H         0.39244   0.94804   0.26036   0.134242  
         H         H         0.36421   0.91998   0.23709   0.134537  
         H         H         0.28613   0.98904   0.26659   0.135486  
         H         H         0.61478   0.06586   0.27654   0.134577  
         H         H         0.64352   0.08901   0.27992   0.135455  
         H         H         0.71965   0.00997   0.20920   0.136063  
         C         C         0.47731   0.01192   0.25966   -0.219812           
         C         C         0.97661   0.50348   0.26472   -0.226320           
         C         C         0.52771   0.00712   0.26717   -0.224924           
         C         C         0.02643   0.51341   0.27906   -0.226767           
         C         C         0.49149   0.04434   0.27509   -0.058343           
         C         C         0.98666   0.53984   0.28404   -0.055460           
         C         C         0.51351   0.97484   0.25280   -0.057636           
         C         C         0.01633   0.47729   0.26120   -0.056911           
         C         C         0.51623   0.04197   0.27907   -0.060173           
         C         C         0.01122   0.54473   0.29085   -0.059651           
         C         C         0.48878   0.97731   0.24990   -0.059528           
         C         C         0.99180   0.47236   0.25430   -0.057458           
         H         H         0.48299   0.07139   0.28328   0.104735  
         H         H         0.97502   0.56392   0.29088   0.105137  
         H         H         0.52199   0.94787   0.24537   0.105976  
         H         H         0.02796   0.45315   0.25364   0.106772  
         H         H         0.52691   0.06719   0.28989   0.105352  
         H         H         0.01881   0.57262   0.30301   0.105552  
         H         H         0.47806   0.95242   0.24170   0.106146  
         H         H         0.98420   0.44444   0.24180   0.106490  
         C         C         0.78071   0.65845   0.25475   -0.230885           
         C         C         0.28005   0.18335   0.28047   -0.225235           
         C         C         0.22008   0.34387   0.24107   -0.226050           
         C         C         0.72066   0.82060   0.23000   -0.225080           
         C         C         0.22121   0.68009   0.24045   -0.225824           
         C         C         0.72514   0.15546   0.22829   -0.224012           
         C         C         0.78660   0.32142   0.25105   -0.226163           
         C         C         0.28324   0.84572   0.25938   -0.220127           
         C         C         0.75629   0.65608   0.22414   -0.091244           
         C         C         0.25553   0.18079   0.24929   -0.095541           
         C         C         0.24447   0.34646   0.27374   -0.093331           
         C         C         0.74519   0.82316   0.26129   -0.096092           
         C         C         0.24630   0.68021   0.23744   -0.098006           
         C         C         0.75019   0.15470   0.21881   -0.099058           
         C         C         0.76157   0.32098   0.25241   -0.098806           
         C         C         0.25817   0.84600   0.26521   -0.097485           
         C         C         0.78180   0.72602   0.27729   0.061128  
         C         C         0.28079   0.25058   0.29882   0.068217  
         C         C         0.21895   0.27691   0.22451   0.060205  
         C         C         0.71995   0.75290   0.20673   0.070263  
         C         C         0.22051   0.74597   0.24691   0.066338  
         C         C         0.72423   0.22189   0.24043   0.064864  
         C         C         0.78770   0.25523   0.24109   0.068681  
         C         C         0.28398   0.77967   0.25117   0.066984  
         H         H         0.74655   0.62913   0.20466   0.107936  
         H         H         0.24580   0.15413   0.23300   0.110272  
         H         H         0.25427   0.37335   0.29305   0.107682  
         H         H         0.75486   0.85014   0.28040   0.110244  
         H         H         0.25617   0.65515   0.23662   0.111410  
         H         H         0.76004   0.12864   0.21011   0.108948  
         H         H         0.75171   0.34596   0.25262   0.112674  
         H         H         0.24826   0.87148   0.26959   0.108443  
         C         C         0.79323   0.69335   0.28054   -0.102835           
         C         C         0.29230   0.21847   0.30584   -0.104746           
         C         C         0.20757   0.30920   0.21761   -0.103637           
         C         C         0.70836   0.78545   0.20327   -0.107496           
         C         C         0.20866   0.71290   0.24377   -0.101758           
         C         C         0.71242   0.18918   0.23969   -0.108135           
         C         C         0.79942   0.28865   0.24607   -0.108788           
         C         C         0.29584   0.81249   0.25258   -0.114424           
         C         C         0.74411   0.68761   0.21660   0.064083  
         C         C         0.24320   0.21222   0.24094   0.068249  
         C         C         0.25661   0.31522   0.28364   0.065038  
         C         C         0.75754   0.79145   0.26714   0.069173  
         C         C         0.25897   0.71269   0.24119   0.066429  
         C         C         0.76286   0.18741   0.22432   0.064390  
         C         C         0.74908   0.28843   0.24816   0.071159  
         C         C         0.24547   0.81345   0.26099   0.067552  
         H         H         0.81223   0.69505   0.30345   0.111839  
         H         H         0.31121   0.22088   0.33192   0.108555  
         H         H         0.18857   0.30753   0.19464   0.111568  
         H         H         0.68941   0.78335   0.17891   0.112137  
         H         H         0.18924   0.71273   0.24455   0.108725  
         H         H         0.69296   0.18964   0.24578   0.109854  
         H         H         0.81882   0.28909   0.24605   0.110865  
         H         H         0.31528   0.81225   0.24875   0.110205  
         C         C         0.75688   0.72324   0.24466   0.006513  
         C         C         0.25594   0.24740   0.26406   0.009253  
         C         C         0.24388   0.27971   0.25697   0.005209  
         C         C         0.74482   0.75588   0.24022   0.007537  
         C         C         0.24604   0.74612   0.24628   0.004559  
         C         C         0.74981   0.22162   0.23668   0.003737  
         C         C         0.76217   0.25509   0.24268   0.002867  
         C         C         0.25843   0.77965   0.25269   0.000407  
         C         C         0.70769   0.71647   0.17555   -0.142352           
         C         C         0.20654   0.24154   0.20359   -0.135734           
         C         C         0.29300   0.28700   0.32910   -0.144253           
         C         C         0.79416   0.76191   0.30325   -0.134721           
         C         C         0.29646   0.74599   0.24799   -0.138746           
         C         C         0.80033   0.22055   0.22902   -0.141528           
         C         C         0.71165   0.25534   0.24226   -0.126865           
         C         C         0.20799   0.78023   0.25508   -0.134749           
         C         C         0.78258   0.79310   0.29745   -0.130933           
         C         C         0.28143   0.31794   0.32138   -0.133485           
         C         C         0.21809   0.21088   0.21365   -0.129225           
         C         C         0.71927   0.68517   0.18054   -0.133905           
         C         C         0.21990   0.81270   0.26287   -0.138358           
         C         C         0.72358   0.28705   0.24419   -0.132629           
         C         C         0.78843   0.18785   0.21928   -0.137783           
         C         C         0.28450   0.71401   0.24381   -0.131417           
         H         H         0.68884   0.71441   0.14778   0.109321  
         H         H         0.79223   0.81998   0.31532   0.109075  
         H         H         0.18750   0.24006   0.18268   0.111084  
         H         H         0.29082   0.34548   0.34422   0.108675  
         H         H         0.31179   0.28948   0.35906   0.109871  
         H         H         0.20834   0.18468   0.20175   0.109161  
         H         H         0.81314   0.76357   0.32679   0.110470  
         H         H         0.70981   0.65769   0.15773   0.107683  
         H         H         0.31582   0.74678   0.25091   0.111928  
         H         H         0.21016   0.83836   0.26766   0.110077  
         H         H         0.81973   0.22079   0.22748   0.110220  
         H         H         0.71405   0.31166   0.23961   0.112305  
         H         H         0.69231   0.25442   0.23833   0.112166  
         H         H         0.79815   0.16155   0.20950   0.109151  
         H         H         0.18859   0.77977   0.25471   0.110830  
         H         H         0.29411   0.68916   0.24609   0.112518  
         C         C         0.62989   0.03079   0.77171   0.027529  
         C         C         0.60717   0.04904   0.77876   -0.234213           
         C         C         0.58693   0.02807   0.77526   0.173776  
         C         C         0.13148   0.50515   0.75378   0.027852  
         C         C         0.13159   0.46671   0.74950   0.028890  
         C         C         0.10948   0.44914   0.75815   -0.234376           
         C         C         0.10952   0.52461   0.75837   -0.228764           
         C         C         0.08856   0.46948   0.76582   0.169630  
         C         C         0.08870   0.50655   0.76559   0.174944  
         C         C         0.36600   0.96379   0.74142   0.027151  
         C         C         0.38817   0.94495   0.74040   -0.230291           
         C         C         0.40890   0.96431   0.74023   0.167508  
         C         C         0.86608   0.48674   0.73162   0.030671  
         C         C         0.86661   0.52633   0.74550   0.031057  
         C         C         0.88904   0.54452   0.75068   -0.232861           
         C         C         0.88769   0.46598   0.72385   -0.231105           
         C         C         0.90959   0.52324   0.74260   0.170462  
         C         C         0.90879   0.48457   0.72905   0.173882  
         C         C         0.36580   0.00200   0.74372   0.030095  
         C         C         0.38766   0.02014   0.73782   -0.232580           
         C         C         0.40847   0.00123   0.73873   0.174126  
         C         C         0.63101   0.99180   0.76272   0.031555  
         C         C         0.60971   0.97147   0.76031   -0.233804           
         C         C         0.58836   0.98983   0.76547   0.173209  
         O         O         0.56302   0.03822   0.77585   -0.342671           
         O         O         0.06557   0.51992   0.77018   -0.335638           
         O         O         0.43249   0.95308   0.74219   -0.341341           
         O         O         0.93157   0.47076   0.73045   -0.338152           
         O         O         0.43140   0.01425   0.73967   -0.335799           
         O         O         0.93328   0.53468   0.75117   -0.341976           
         O         O         0.56579   0.97490   0.76002   -0.338400           
         O         O         0.06500   0.45863   0.77237   -0.340540           
         B         B         0.55030   0.00483   0.76508   0.586527  
         B         B         0.05108   0.48988   0.77232   0.584417  
         B         B         0.44612   0.98440   0.74218   0.583774  
         B         B         0.94655   0.50215   0.74583   0.587896  
         C         C         0.65213   0.05068   0.76912   0.024631  
         C         C         0.67465   0.03019   0.75178   0.036234  
         C         C         0.65166   0.08980   0.78076   -0.224057           
         C         C         0.67302   0.10658   0.77193   0.173113  
         C         C         0.69498   0.08580   0.74917   0.178670  
         C         C         0.69627   0.04823   0.73938   -0.231251           
         C         C         0.15378   0.52466   0.75339   0.032298  
         C         C         0.17601   0.50521   0.74770   0.027800  
         C         C         0.15326   0.56302   0.75918   -0.233843           
         C         C         0.17457   0.57997   0.75326   0.180153  
         C         C         0.19642   0.56038   0.74213   0.170410  
         C         C         0.19767   0.52387   0.74143   -0.222875           
         C         C         0.34337   0.94497   0.74340   0.030272  
         C         C         0.32131   0.96532   0.75115   0.031812  
         C         C         0.34309   0.90659   0.73802   -0.220726           
         C         C         0.32144   0.89037   0.74342   0.170705  
         C         C         0.29983   0.91077   0.75513   0.176480  
         C         C         0.29929   0.94747   0.75731   -0.236872           
         C         C         0.84345   0.46800   0.73166   0.033279  
         C         C         0.82151   0.48916   0.74525   0.025033  
         C         C         0.84325   0.42903   0.72087   -0.227498           
         C         C         0.82163   0.41336   0.73159   0.180707  
         C         C         0.80004   0.43485   0.75259   0.170175  
         C         C         0.79949   0.47187   0.75679   -0.220644           
         C         C         0.34341   0.02299   0.75421   0.028868  
         C         C         0.32131   0.00463   0.75615   0.027083  
         C         C         0.34360   0.06189   0.76437   -0.229214           
         C         C         0.32219   0.08021   0.76941   0.176756  
         C         C         0.30053   0.06140   0.76402   0.174083  
         C         C         0.29953   0.02461   0.76059   -0.225132           
         C         C         0.84417   0.54750   0.75412   0.027764  
         C         C         0.82192   0.52864   0.75084   0.032531  
         C         C         0.84416   0.58682   0.76727   -0.218081           
         C         C         0.82270   0.60521   0.77128   0.174654  
         C         C         0.80105   0.58576   0.75946   0.175451  
         C         C         0.80021   0.54832   0.75150   -0.231506           
         C         C         0.65383   0.97217   0.75420   0.029928  
         C         C         0.67555   0.99080   0.74623   0.025224  
         C         C         0.65437   0.93434   0.75255   -0.230785           
         C         C         0.67615   0.91631   0.74193   0.181884  
         C         C         0.69754   0.93477   0.73705   0.172358  
         C         C         0.69777   0.97135   0.73783   -0.225487           
         C         C         0.15437   0.44614   0.73823   0.031515  
         C         C         0.17631   0.46576   0.74212   0.031933  
         C         C         0.15485   0.40671   0.72328   -0.222758           
         C         C         0.17650   0.38904   0.71932   0.176908  
         C         C         0.19794   0.40911   0.73174   0.176288  
         C         C         0.19833   0.44675   0.74132   -0.229385           
         O         O         0.71337   0.10825   0.73445   -0.337755           
         O         O         0.21494   0.58302   0.72898   -0.340997           
         O         O         0.28092   0.88853   0.76461   -0.332358           
         O         O         0.78116   0.41307   0.76868   -0.344890           
         O         O         0.28201   0.08539   0.76134   -0.344186           
         O         O         0.78251   0.60963   0.75618   -0.337624           
         O         O         0.71656   0.91114   0.73653   -0.344390           
         O         O         0.21665   0.38548   0.73424   -0.335156           
         B         B         0.70217   0.14357   0.74963   0.584491  
         B         B         0.20358   0.61718   0.73448   0.575688  
         B         B         0.29154   0.85337   0.75433   0.585795  
         B         B         0.79197   0.37712   0.75203   0.579741  
         B         B         0.29305   0.11972   0.76835   0.576532  
         B         B         0.79336   0.64475   0.76959   0.588842  
         B         B         0.70604   0.87721   0.73710   0.578903  
         B         B         0.20609   0.35024   0.72178   0.586463  
         O         O         0.67718   0.14326   0.77537   -0.344842           
         O         O         0.17859   0.61606   0.75252   -0.339639           
         O         O         0.31667   0.85417   0.74209   -0.341635           
         O         O         0.81703   0.37684   0.72731   -0.343142           
         O         O         0.31788   0.11730   0.77697   -0.340666           
         O         O         0.81821   0.64255   0.78043   -0.343174           
         O         O         0.68100   0.88000   0.73904   -0.340179           
         O         O         0.18119   0.35183   0.70992   -0.340762           
         H         H         0.60979   0.94194   0.75386   0.135915  
         H         H         0.63828   0.91995   0.76457   0.133629  
         H         H         0.71470   0.98491   0.73596   0.135433  
         H         H         0.10881   0.42075   0.76108   0.135443  
         H         H         0.10874   0.55307   0.75625   0.133747  
         H         H         0.13673   0.57856   0.76322   0.134780  
         H         H         0.13865   0.39054   0.71717   0.135110  
         H         H         0.21501   0.50965   0.73128   0.136101  
         H         H         0.21517   0.46173   0.75264   0.135111  
         H         H         0.38842   0.04844   0.73455   0.133921  
         H         H         0.36000   0.07702   0.76504   0.135162  
         H         H         0.28238   0.01134   0.75869   0.135487  
         H         H         0.89026   0.57445   0.76104   0.134074  
         H         H         0.88799   0.43660   0.71863   0.135213  
         H         H         0.85955   0.41192   0.70908   0.135731  
         H         H         0.86064   0.60217   0.77154   0.134814  
         H         H         0.78238   0.48735   0.77162   0.135545  
         H         H         0.78315   0.53413   0.74262   0.134197  
         H         H         0.38897   0.91637   0.74183   0.134596  
         H         H         0.35941   0.89037   0.73306   0.134413  
         H         H         0.28222   0.96222   0.76597   0.135320  
         H         H         0.60561   0.07820   0.78248   0.133402  
         H         H         0.63499   0.10595   0.79162   0.134583  
         H         H         0.71357   0.03276   0.71923   0.134432  
         C         C         0.47332   0.98831   0.74683   -0.227261           
         C         C         0.97369   0.49972   0.75684   -0.225919           
         C         C         0.52319   -0.00045  0.75884   -0.223399           
         C         C         0.02377   0.49246   0.76970   -0.221890           
         C         C         0.48303   0.02467   0.76401   -0.054946           
         C         C         0.98868   0.53118   0.77167   -0.056393           
         C         C         0.51351   0.96310   0.74138   -0.055731           
         C         C         0.00879   0.46119   0.75678   -0.054058           
         C         C         0.50753   0.03015   0.76938   -0.060336           
         C         C         0.01325   0.52751   0.77760   -0.059800           
         C         C         0.48898   0.95751   0.73508   -0.060062           
         C         C         0.98420   0.46479   0.75002   -0.061652           
         H         H         0.47114   0.04850   0.77126   0.105878  
         H         H         0.98101   0.55826   0.77563   0.106247  
         H         H         0.52545   0.93931   0.73394   0.104527  
         H         H         0.01652   0.43411   0.75258   0.104078  
         H         H         0.51477   0.05810   0.78017   0.106705  
         H         H         0.02468   0.55162   0.78540   0.105654  
         H         H         0.48180   0.92923   0.72177   0.105879  
         H         H         0.97282   0.44044   0.74038   0.105282  
         C         C         0.78017   0.67974   0.76284   -0.223057           
         C         C         0.27979   0.15509   0.76694   -0.225137           
         C         C         0.21941   0.31572   0.73086   -0.226993           
         C         C         0.71962   0.84159   0.73506   -0.228582           
         C         C         0.21677   0.65227   0.73197   -0.222601           
         C         C         0.71554   0.17780   0.73946   -0.226429           
         C         C         0.77840   0.34229   0.75591   -0.221404           
         C         C         0.27789   0.81866   0.75742   -0.228765           
         C         C         0.75569   0.67715   0.73066   -0.100548           
         C         C         0.25533   0.15258   0.73625   -0.093842           
         C         C         0.24387   0.31838   0.76297   -0.097173           
         C         C         0.74411   0.84388   0.76428   -0.091522           
         C         C         0.24176   0.65242   0.72915   -0.098276           
         C         C         0.74063   0.17758   0.73628   -0.098605           
         C         C         0.75334   0.34313   0.76406   -0.100090           
         C         C         0.25284   0.81841   0.75976   -0.096935           
         C         C         0.78090   0.74715   0.78230   0.069223  
         C         C         0.28058   0.22250   0.78756   0.060694  
         C         C         0.21861   0.24875   0.71482   0.067918  
         C         C         0.71897   0.77360   0.71012   0.062120  
         C         C         0.21561   0.71844   0.74264   0.067495  
         C         C         0.71508   0.24359   0.74570   0.068973  
         C         C         0.77879   0.27581   0.74421   0.065035  
         C         C         0.27889   0.75281   0.75002   0.067105  
         H         H         0.74597   0.65039   0.71327   0.110532  
         H         H         0.24565   0.12554   0.71640   0.107919  
         H         H         0.25357   0.34510   0.77961   0.111066  
         H         H         0.75374   0.87105   0.78508   0.107378  
         H         H         0.25164   0.62708   0.72593   0.109305  
         H         H         0.75031   0.15257   0.73700   0.113658  
         H         H         0.74366   0.36918   0.77162   0.108909  
         H         H         0.24297   0.84331   0.75933   0.111371  
         C         C         0.79247   0.71486   0.78837   -0.106918           
         C         C         0.29214   0.19008   0.79236   -0.103949           
         C         C         0.20708   0.28072   0.70654   -0.102788           
         C         C         0.70734   0.80635   0.70831   -0.103567           
         C         C         0.20393   0.68512   0.73761   -0.113688           
         C         C         0.70307   0.21072   0.74337   -0.112150           
         C         C         0.79086   0.30846   0.74567   -0.108429           
         C         C         0.29061   0.78592   0.75319   -0.102836           
         C         C         0.74338   0.70857   0.72263   0.069698  
         C         C         0.24300   0.18398   0.72859   0.065311  
         C         C         0.25619   0.28712   0.77227   0.069663  
         C         C         0.75650   0.81225   0.77028   0.063556  
         C         C         0.25430   0.68520   0.73493   0.068206  
         C         C         0.75342   0.20959   0.73751   0.070045  
         C         C         0.74042   0.31069   0.75931   0.064705  
         C         C         0.24028   0.78591   0.75635   0.066603  
         H         H         0.81139   0.71718   0.81377   0.112685  
         H         H         0.31115   0.19203   0.81524   0.111943  
         H         H         0.18816   0.27841   0.68090   0.108580  
         H         H         0.68832   0.80441   0.68599   0.111042  
         H         H         0.18452   0.68456   0.73700   0.110217  
         H         H         0.68365   0.21084   0.74532   0.113379  
         H         H         0.81032   0.30768   0.74072   0.110143  
         H         H         0.31001   0.78613   0.75154   0.109245  
         C         C         0.75604   0.74403   0.74801   0.008618  
         C         C         0.25564   0.21956   0.75521   0.003809  
         C         C         0.24349   0.25189   0.74878   0.010021  
         C         C         0.74390   0.77649   0.74237   0.006332  
         C         C         0.24115   0.71887   0.74349   -0.000140           
         C         C         0.74062   0.24315   0.74269   0.002897  
         C         C         0.75322   0.27635   0.74769   0.003246  
         C         C         0.25337   0.75258   0.75106   0.005602  
         C         C         0.70673   0.73759   0.68428   -0.136063           
         C         C         0.20644   0.21248   0.68687   -0.144332           
         C         C         0.29286   0.25820   0.81086   -0.135450           
         C         C         0.79305   0.78357   0.81179   -0.144250           
         C         C         0.29161   0.71874   0.74187   -0.134376           
         C         C         0.79111   0.24189   0.74060   -0.125574           
         C         C         0.70271   0.27835   0.75684   -0.143553           
         C         C         0.20294   0.75213   0.74716   -0.138960           
         C         C         0.78138   0.81469   0.80572   -0.133159           
         C         C         0.28124   0.28888   0.80152   -0.129732           
         C         C         0.21810   0.18151   0.69388   -0.132751           
         C         C         0.71837   0.70665   0.69155   -0.132247           
         C         C         0.21476   0.78449   0.75389   -0.130276           
         C         C         0.71483   0.31066   0.76463   -0.135253           
         C         C         0.77897   0.21033   0.73864   -0.131988           
         C         C         0.27984   0.68615   0.73384   -0.137977           
         H         H         0.68777   0.73563   0.66009   0.109861  
         H         H         0.79083   0.84214   0.82784   0.107938  
         H         H         0.18756   0.21012   0.65960   0.109174  
         H         H         0.29081   0.31546   0.81561   0.109647  
         H         H         0.31184   0.26005   0.83372   0.110225  
         H         H         0.20868   0.15415   0.67306   0.108049  
         H         H         0.81191   0.78591   0.83963   0.109711  
         H         H         0.70881   0.67980   0.67473   0.109108  
         H         H         0.31099   0.71945   0.74251   0.110872  
         H         H         0.20508   0.80959   0.75390   0.110611  
         H         H         0.81049   0.24222   0.74215   0.111626  
         H         H         0.70523   0.33695   0.77356   0.108617  
         H         H         0.68329   0.27852   0.75937   0.110349  
         H         H         0.78842   0.18528   0.74056   0.111940  
         H         H         0.18359   0.75101   0.74326   0.112596  
         H         H         0.28961   0.66051   0.72899   0.110045 

