
##########################################################################
#               Crystallographic Information Format file
#               Produced by PyCifRW module
#
#  This is a CIF file.  CIF has been adopted by the International
#  Union of Crystallography as the standard for data archiving and
#  transmission.
#
#  For information on this file format, follow the CIF links at
#  http://www.iucr.org
##########################################################################

data_image0

_cell_length_a                          27.0179
_cell_length_b                          23.0413
_cell_length_c                          7.8051
_cell_angle_alpha                       115.208
_cell_angle_beta                        107.22
_cell_angle_gamma                       89.76
_symmetry_space_group_name_H-M          'P 1'
_space_group_name_Hall                  'P 1'
loop_
  _atom_site_type_symbol
  _atom_site_label
  _atom_site_fract_x
  _atom_site_fract_y
  _atom_site_fract_z
  _atom_site_charge
         C         C         0.73895   0.97022   0.24796   0.168745  
         C         C         0.26032   0.03219   0.25129   0.166732  
         C         C         0.26053   0.97076   0.25043   0.173097  
         C         C         0.73903   0.03188   0.25061   0.173061  
         C         C         0.69605   0.06474   0.25071   -0.185338           
         C         C         0.30352   0.93804   0.25064   -0.187618           
         C         C         0.30323   0.06579   0.25512   -0.190104           
         C         C         0.69593   0.93698   0.24478   -0.191119           
         C         C         0.65221   0.03158   0.24862   -0.041928           
         C         C         0.34712   0.97138   0.25217   -0.040253           
         C         C         0.34713   0.03299   0.25527   -0.031714           
         C         C         0.65214   0.97003   0.24596   -0.029066           
         C         C         0.60090   0.04985   0.25129   0.317115  
         C         C         0.39822   0.95305   0.24808   0.318977  
         C         C         0.39844   0.05074   0.25490   0.314625  
         C         C         0.60079   0.95241   0.24668   0.316328  
         C         C         0.49934   0.56291   0.25004   -0.216102           
         C         C         0.49843   0.44023   0.25057   -0.212878           
         C         C         0.45378   0.53160   0.24408   -0.069304           
         C         C         0.54394   0.47151   0.25626   -0.069472           
         C         C         0.54445   0.53189   0.25630   -0.051229           
         C         C         0.45333   0.47124   0.24427   -0.052482           
         H         H         0.41874   0.55523   0.24011   0.108376  
         H         H         0.57893   0.44782   0.26028   0.108206  
         H         H         0.57972   0.55541   0.25905   0.107323  
         H         H         0.41816   0.44771   0.24205   0.106678  
         C         C         0.02516   0.00077   0.24717   -0.010120           
         C         C         0.97364   0.00009   0.24212   -0.006577           
         C         C         0.02821   0.89928   0.28297   -0.142040           
         C         C         0.97084   0.10209   0.20870   -0.139939           
         C         C         0.97713   0.89832   0.27638   -0.129931           
         C         C         0.02192   0.10292   0.21489   -0.132301           
         C         C         0.05461   0.95024   0.26815   0.036139  
         C         C         0.94431   0.05083   0.22245   0.035887  
         C         C         0.94738   0.94853   0.25602   0.023479  
         C         C         0.05140   0.05239   0.23379   0.027160  
         C         C         0.10550   0.95157   0.26862   -0.056467           
         C         C         0.89349   0.04953   0.22324   -0.055543           
         C         C         0.89608   0.94884   0.24965   -0.043084           
         C         C         0.10272   0.05196   0.24065   -0.047754           
         H         H         0.12916   0.91441   0.28074   0.107906  
         H         H         0.87012   0.08710   0.21311   0.107873  
         H         H         0.87452   0.91155   0.26042   0.110059  
         H         H         0.12407   0.08910   0.22886   0.109044  
         H         H         0.05004   0.86132   0.30094   0.109955  
         H         H         0.94945   0.14072   0.19377   0.109827  
         H         H         0.95829   0.85976   0.29081   0.111606  
         H         H         0.04130   0.14168   0.20281   0.112055  
         Ni        Ni        0.49940   0.00145   0.24943   0.467934  
         O         O         0.78746   0.05152   0.24964   -0.374184           
         O         O         0.21218   0.95078   0.25084   -0.372129           
         O         O         0.21171   0.05203   0.25141   -0.369363           
         O         O         0.78727   0.94964   0.24457   -0.369448           
         H         H         0.69563   0.11174   0.24972   0.150228  
         H         H         0.30393   0.89108   0.25190   0.151141  
         H         H         0.30310   0.11314   0.25660   0.150183  
         H         H         0.69592   0.88950   0.24238   0.149520  
         C         C         0.47273   0.71934   0.23917   0.174764  
         C         C         0.55388   0.77080   0.24947   -0.183494           
         C         C         0.52558   0.82167   0.24625   -0.034884           
         C         C         0.54075   0.88202   0.24656   0.317088  
         C         C         0.52561   0.28376   0.26084   0.172213  
         C         C         0.44538   0.23314   0.25901   -0.184846           
         C         C         0.47365   0.18196   0.25883   -0.034810           
         C         C         0.45855   0.12144   0.25728   0.318842  
         C         C         0.52559   0.72014   0.24613   0.166958  
         C         C         0.44463   0.76954   0.23762   -0.182239           
         C         C         0.47307   0.82125   0.24232   -0.040070           
         C         C         0.45791   0.88168   0.24253   0.315186  
         C         C         0.47318   0.28353   0.25924   0.166724  
         C         C         0.55369   0.23327   0.25951   -0.180617           
         C         C         0.52576   0.18183   0.25803   -0.039262           
         C         C         0.54102   0.12122   0.25655   0.312997  
         O         O         0.54265   0.66405   0.25115   -0.339443           
         O         O         0.45574   0.33947   0.25402   -0.340080           
         O         O         0.45580   0.66235   0.23668   -0.340301           
         O         O         0.54204   0.34044   0.26033   -0.340315           
         H         H         0.59450   0.77159   0.25469   0.150750  
         H         H         0.40511   0.23268   0.25796   0.150894  
         H         H         0.40426   0.76945   0.23545   0.150605  
         H         H         0.59366   0.23287   0.25686   0.150217  
         N         N         0.58814   0.10581   0.25556   -0.377884           
         N         N         0.41077   0.89694   0.24274   -0.378893           
         N         N         0.41147   0.10625   0.25694   -0.374906           
         N         N         0.58785   0.89720   0.24682   -0.372890           
         B         B         0.81616   0.00030   0.24514   0.660151  
         B         B         0.18305   0.00135   0.25123   0.660832  
         N         N         0.57015   0.00123   0.24886   -0.356427           
         N         N         0.42894   0.00170   0.25067   -0.353337           
         B         B         0.49939   0.62888   0.24576   0.579682  
         B         B         0.49857   0.37422   0.25503   0.580793  
         N         N         0.49928   0.91795   0.24527   -0.365347           
         N         N         0.49980   0.08517   0.25558   -0.364396           
         N         N         0.13051   0.00172   0.25501   -0.235563           
         N         N         0.86844   -0.00057  0.23735   -0.236518           
         C         C         0.74063   0.97003   0.74952   0.168083  
         C         C         0.26145   0.02755   0.75037   0.170068  
         C         C         0.26148   0.96595   0.74851   0.171104  
         C         C         0.73979   0.03117   0.74822   0.172043  
         C         C         0.69660   0.06356   0.74917   -0.186911           
         C         C         0.30455   0.93319   0.74867   -0.186519           
         C         C         0.30456   0.06116   0.75557   -0.191248           
         C         C         0.69810   0.93626   0.74764   -0.190194           
         C         C         0.65340   0.02995   0.74930   -0.039567           
         C         C         0.34842   0.96656   0.75135   -0.037916           
         C         C         0.34839   0.02832   0.75556   -0.031043           
         C         C         0.65394   0.96856   0.74764   -0.033397           
         C         C         0.60211   0.04768   0.75309   0.318993  
         C         C         0.39988   0.94874   0.74879   0.315469  
         C         C         0.39971   0.04659   0.75632   0.314634  
         C         C         0.60279   0.95035   0.74861   0.314479  
         C         C         0.50312   0.55938   0.74977   -0.213257           
         C         C         0.50033   0.43657   0.74895   -0.215675           
         C         C         0.45691   0.52851   0.74081   -0.068944           
         C         C         0.54645   0.46724   0.75649   -0.070841           
         C         C         0.54787   0.52774   0.75724   -0.052490           
         C         C         0.45551   0.46807   0.74033   -0.050065           
         H         H         0.42217   0.55272   0.73488   0.107922  
         H         H         0.58124   0.44316   0.76177   0.108749  
         H         H         0.58357   0.55095   0.76187   0.106777  
         H         H         0.41974   0.44486   0.73512   0.106916  
         C         C         0.02606   -0.00111  0.74764   -0.007964           
         C         C         0.97459   -0.00095  0.74327   -0.007771           
         C         C         0.02804   0.89741   0.78362   -0.145177           
         C         C         0.97258   0.10035   0.70651   -0.140576           
         C         C         0.97703   0.89727   0.77795   -0.128899           
         C         C         0.02357   0.10028   0.71144   -0.132445           
         C         C         0.05494   0.94798   0.76842   0.036063  
         C         C         0.94569   0.04998   0.72230   0.034396  
         C         C         0.94796   0.94801   0.75816   0.023797  
         C         C         0.05272   0.04973   0.73209   0.026975  
         C         C         0.10574   0.94853   0.76759   -0.055860           
         C         C         0.89489   0.04956   0.72346   -0.061333           
         C         C         0.89678   0.94929   0.75255   -0.046204           
         C         C         0.10395   0.04854   0.73760   -0.046914           
         H         H         0.12887   0.91095   0.77929   0.108206  
         H         H         0.87163   0.08717   0.71266   0.112896  
         H         H         0.87508   0.91259   0.76514   0.109753  
         H         H         0.12561   0.08503   0.72389   0.109875  
         H         H         0.04926   0.85886   0.80010   0.110597  
         H         H         0.95136   0.13882   0.68947   0.109215  
         H         H         0.95768   0.85897   0.79213   0.111482  
         H         H         0.04286   0.13830   0.69612   0.111362  
         Ni        Ni        0.50121   0.99845   0.75282   0.467220  
         O         O         0.78773   0.05118   0.74433   -0.372962           
         O         O         0.21285   0.94611   0.74821   -0.372541           
         O         O         0.21285   0.04760   0.74990   -0.369667           
         O         O         0.78937   0.95067   0.74924   -0.370313           
         H         H         0.69545   0.11028   0.74624   0.150814  
         H         H         0.30493   0.88603   0.74866   0.150322  
         H         H         0.30495   0.10864   0.75790   0.149785  
         H         H         0.69854   0.88905   0.74710   0.150568  
         C         C         0.47670   0.71626   0.74271   0.173810  
         C         C         0.55720   0.76786   0.74928   -0.184493           
         C         C         0.52865   0.81873   0.74772   -0.034363           
         C         C         0.54326   0.87923   0.74775   0.318515  
         C         C         0.52638   0.28029   0.76126   0.175046  
         C         C         0.44601   0.23002   0.76013   -0.185576           
         C         C         0.47415   0.17866   0.75988   -0.035031           
         C         C         0.45932   0.11802   0.75886   0.318678  
         C         C         0.52943   0.71715   0.74789   0.166362  
         C         C         0.44833   0.76639   0.74245   -0.183261           
         C         C         0.47631   0.81817   0.74605   -0.038706           
         C         C         0.46055   0.87839   0.74588   0.315738  
         C         C         0.47399   0.28030   0.76011   0.168116  
         C         C         0.55442   0.22991   0.76102   -0.182699           
         C         C         0.52631   0.17870   0.75964   -0.038891           
         C         C         0.54180   0.11834   0.75873   0.313612  
         O         O         0.54688   0.66114   0.75308   -0.338974           
         O         O         0.45701   0.33655   0.75574   -0.340422           
         O         O         0.46015   0.65926   0.74076   -0.341346           
         O         O         0.54291   0.33668   0.75988   -0.341155           
         H         H         0.59759   0.76862   0.75165   0.151008  
         H         H         0.40571   0.22971   0.75894   0.151714  
         H         H         0.40815   0.76652   0.74266   0.151128  
         H         H         0.59443   0.22930   0.75889   0.151004  
         N         N         0.58899   0.10348   0.75757   -0.378359           
         N         N         0.41316   0.89303   0.74501   -0.379748           
         N         N         0.41238   0.10230   0.75863   -0.373779           
         N         N         0.59023   0.89493   0.74817   -0.374144           
         B         B         0.81729   0.00102   0.74524   0.662624  
         B         B         0.18392   0.99696   0.74893   0.659174  
         N         N         0.57182   -0.00110  0.75156   -0.353862           
         N         N         0.43046   0.99782   0.75252   -0.354356           
         B         B         0.50375   0.62578   0.74811   0.580112  
         B         B         0.49973   0.37073   0.75441   0.580858  
         N         N         0.50157   0.91484   0.74731   -0.365066           
         N         N         0.50081   0.08203   0.75778   -0.364927           
         N         N         0.13131   0.99808   0.75287   -0.235689           
         N         N         0.86955   -0.00005  0.73840   -0.238473 

