
##########################################################################
#               Crystallographic Information Format file
#               Produced by PyCifRW module
#
#  This is a CIF file.  CIF has been adopted by the International
#  Union of Crystallography as the standard for data archiving and
#  transmission.
#
#  For information on this file format, follow the CIF links at
#  http://www.iucr.org
##########################################################################

data_image0

_cell_length_a                          30.2842
_cell_length_b                          52.2007
_cell_length_c                          8.01543
_cell_angle_alpha                       89.9431
_cell_angle_beta                        122.586
_cell_angle_gamma                       90.1234
_symmetry_space_group_name_H-M          'P 1'
_space_group_name_Hall                  'P 1'
loop_
  _atom_site_type_symbol
  _atom_site_label
  _atom_site_fract_x
  _atom_site_fract_y
  _atom_site_fract_z
  _atom_site_charge
         C         C         0.52666   0.80876   0.23779   0.030020  
         C         C         0.55128   0.83214   0.23799   0.028333  
         C         C         0.59811   0.83153   0.23752   -0.222125           
         C         C         0.61846   0.80814   0.23608   0.178999  
         C         C         0.59415   0.78519   0.23366   0.172809  
         C         C         0.54894   0.78496   0.23503   -0.228418           
         C         C         0.02609   0.30865   0.23203   0.031721  
         C         C         0.05045   0.33213   0.23167   0.027306  
         C         C         0.09716   0.33154   0.23042   -0.222252           
         C         C         0.11758   0.30818   0.22860   0.175512  
         C         C         0.09323   0.28520   0.22555   0.174662  
         C         C         0.04827   0.28488   0.22830   -0.230132           
         C         C         0.52650   0.19288   0.24016   0.031077  
         C         C         0.55120   0.16964   0.23900   0.028662  
         C         C         0.59776   0.17060   0.23728   -0.221508           
         C         C         0.61767   0.19412   0.23548   0.176656  
         C         C         0.59310   0.21696   0.23271   0.170980  
         C         C         0.54818   0.21687   0.23601   -0.229669           
         C         C         0.02686   0.69240   0.24081   0.030313  
         C         C         0.05109   0.66891   0.24171   0.029115  
         C         C         0.09813   0.66934   0.24308   -0.223271           
         C         C         0.11875   0.69264   0.24069   0.178530  
         C         C         0.09453   0.71571   0.23558   0.171392  
         C         C         0.04936   0.71612   0.23696   -0.227307           
         O         O         0.62258   0.76474   0.22938   -0.343011           
         O         O         0.12122   0.26477   0.21894   -0.340626           
         O         O         0.62090   0.23759   0.22537   -0.339463           
         O         O         0.12273   0.73606   0.22748   -0.341363           
         B         B         0.66521   0.77590   0.23139   0.580245  
         B         B         0.16403   0.27587   0.22211   0.579975  
         B         B         0.66351   0.22656   0.22696   0.580889  
         B         B         0.16534   0.72467   0.23135   0.580190  
         O         O         0.66305   0.80276   0.23528   -0.342062           
         O         O         0.16214   0.30273   0.22739   -0.341880           
         O         O         0.66198   0.19973   0.23360   -0.341868           
         O         O         0.16340   0.69780   0.23981   -0.342170           
         C         C         0.47870   0.80943   0.23952   0.029497  
         C         C         0.45644   0.83342   0.24303   0.028818  
         C         C         0.45401   0.78620   0.23805   -0.228173           
         C         C         0.40878   0.78746   0.23836   0.172209  
         C         C         0.38644   0.81092   0.23810   0.180086  
         C         C         0.40932   0.83384   0.24175   -0.223742           
         C         C         0.97842   0.30914   0.23557   0.028138  
         C         C         0.95603   0.33312   0.23790   0.031481  
         C         C         0.95420   0.28591   0.23771   -0.227761           
         C         C         0.90936   0.28728   0.24090   0.172902  
         C         C         0.88726   0.31078   0.24141   0.182143  
         C         C         0.90962   0.33363   0.24110   -0.227614           
         C         C         0.47895   0.19183   0.24448   0.027305  
         C         C         0.45701   0.16764   0.24659   0.030529  
         C         C         0.45452   0.21482   0.24825   -0.224153           
         C         C         0.40973   0.21308   0.25159   0.171845  
         C         C         0.38764   0.18940   0.24946   0.181381  
         C         C         0.41048   0.16673   0.24907   -0.225684           
         C         C         0.97891   0.69191   0.24228   0.029058  
         C         C         0.95585   0.66798   0.24215   0.029591  
         C         C         0.95514   0.71520   0.24500   -0.227463           
         C         C         0.91010   0.71397   0.24706   0.171883  
         C         C         0.88725   0.69051   0.24440   0.178653  
         C         C         0.90900   0.66759   0.24218   -0.223469           
         O         O         0.34115   0.80642   0.23676   -0.341668           
         O         O         0.84248   0.30653   0.24354   -0.341069           
         O         O         0.34255   0.19341   0.25022   -0.340712           
         O         O         0.84248   0.69489   0.24622   -0.342252           
         B         B         0.33693   0.77956   0.23851   0.578969  
         B         B         0.83810   0.27972   0.24628   0.576969  
         B         B         0.33823   0.22016   0.25618   0.577301  
         B         B         0.83885   0.72170   0.25150   0.579429  
         O         O         0.37876   0.76758   0.24019   -0.341828           
         O         O         0.87942   0.26755   0.24548   -0.342746           
         O         O         0.37986   0.23257   0.25834   -0.341783           
         O         O         0.88068   0.73377   0.25312   -0.340844           
         C         C         0.52856   0.85660   0.24089   0.030627  
         C         C         0.48188   0.85732   0.24480   0.029079  
         C         C         0.46060   0.88136   0.25034   -0.232865           
         C         C         0.48556   0.90335   0.24967   0.174159  
         C         C         0.53048   0.90253   0.24127   0.174969  
         C         C         0.55264   0.87982   0.23785   -0.230172           
         C         C         0.02750   0.35660   0.23403   0.029292  
         C         C         0.02822   0.40262   0.23433   0.175178  
         C         C         0.05139   0.38006   0.23382   -0.229930           
         C         C         0.52887   0.14495   0.24117   0.029551  
         C         C         0.48217   0.14395   0.24439   0.028595  
         C         C         0.46043   0.11980   0.24543   -0.232987           
         C         C         0.48506   0.09796   0.24151   0.175666  
         C         C         0.53072   0.09898   0.23809   0.174643  
         C         C         0.55318   0.12185   0.23810   -0.230038           
         C         C         0.02744   0.64453   0.24094   0.029383  
         C         C         0.02759   0.59864   0.23694   0.175374  
         C         C         0.05110   0.62121   0.23866   -0.229092           
         C         C         0.98053   0.35708   0.23571   0.028974  
         C         C         0.95795   0.38094   0.23662   -0.233288           
         C         C         0.98229   0.40314   0.23600   0.175301  
         C         C         0.98017   0.64400   0.24028   0.029397  
         C         C         0.95722   0.62012   0.23880   -0.233908           
         C         C         0.98141   0.59801   0.23682   0.175382  
         O         O         0.54648   0.92719   0.23597   -0.322999           
         O         O         0.04411   0.42741   0.23221   -0.322976           
         O         O         0.54686   0.07434   0.23350   -0.322776           
         O         O         0.04312   0.57396   0.23227   -0.322982           
         B         B         0.51070   0.94316   0.24474   0.607793  
         B         B         0.00706   0.44311   0.23522   0.607418  
         B         B         0.51021   0.05828   0.23645   0.606644  
         B         B         0.00561   0.55816   0.23125   0.607031  
         O         O         0.47275   0.92874   0.25468   -0.344804           
         O         O         0.96841   0.42842   0.23816   -0.345198           
         O         O         0.47144   0.07256   0.24119   -0.345144           
         O         O         0.96679   0.57270   0.23370   -0.346347           
         H         H         0.61785   0.84882   0.23665   0.137128  
         H         H         0.53139   0.76680   0.23388   0.135752  
         H         H         0.46992   0.76763   0.23796   0.135654  
         H         H         0.39157   0.85162   0.24653   0.135556  
         H         H         0.42579   0.88269   0.25673   0.133763  
         H         H         0.58724   0.88011   0.22980   0.137050  
         H         H         0.11640   0.34893   0.22785   0.136929  
         H         H         0.03069   0.26669   0.22659   0.136243  
         H         H         0.08677   0.38072   0.23105   0.137709  
         H         H         0.61745   0.15342   0.23494   0.137034  
         H         H         0.53029   0.23488   0.23494   0.136843  
         H         H         0.47033   0.23353   0.24986   0.136386  
         H         H         0.39313   0.14877   0.25363   0.135358  
         H         H         0.42561   0.11820   0.25144   0.134391  
         H         H         0.58820   0.12179   0.23274   0.137886  
         H         H         0.11759   0.65194   0.24286   0.136968  
         H         H         0.03173   0.73432   0.23347   0.137068  
         H         H         0.08638   0.62070   0.23517   0.137855  
         H         H         0.97010   0.26729   0.23810   0.137364  
         H         H         0.89185   0.35134   0.24647   0.134920  
         H         H         0.92267   0.38193   0.23999   0.134231  
         H         H         0.97159   0.73370   0.24600   0.137105  
         H         H         0.89054   0.64983   0.24305   0.134997  
         H         H         0.92190   0.61898   0.24173   0.134221  
         C         C         0.79423   0.73574   0.25072   -0.215091           
         C         C         0.29308   0.23427   0.25150   -0.213264           
         C         C         0.79301   0.26580   0.24343   -0.214188           
         C         C         0.29229   0.76530   0.23738   -0.213665           
         C         C         0.75466   0.72188   0.25332   -0.068225           
         C         C         0.25329   0.22097   0.25648   -0.069918           
         C         C         0.75414   0.27994   0.24808   -0.069540           
         C         C         0.25158   0.77900   0.23254   -0.070482           
         C         C         0.74921   0.77525   0.23095   -0.068232           
         C         C         0.24809   0.27431   0.22070   -0.067521           
         C         C         0.74629   0.22663   0.21927   -0.067590           
         C         C         0.24973   0.72552   0.23389   -0.068510           
         H         H         0.75692   0.70107   0.26241   0.107006  
         H         H         0.25556   0.20021   0.27283   0.108056  
         H         H         0.75743   0.30072   0.25969   0.107513  
         H         H         0.25256   0.79984   0.23271   0.108207  
         C         C         0.79086   0.76267   0.23961   -0.051537           
         C         C         0.28977   0.26117   0.23342   -0.052446           
         C         C         0.78842   0.23891   0.22861   -0.050568           
         C         C         0.29062   0.73831   0.23769   -0.052131           
         C         C         0.71306   0.73449   0.24510   -0.054241           
         C         C         0.21154   0.23413   0.24323   -0.053271           
         C         C         0.71216   0.26765   0.23952   -0.054879           
         C         C         0.21059   0.76620   0.22817   -0.052727           
         H         H         0.82079   0.77357   0.23459   0.107016  
         H         H         0.32005   0.27162   0.22769   0.106414  
         H         H         0.81777   0.22774   0.22222   0.107212  
         H         H         0.32148   0.72743   0.23942   0.106645  
         C         C         0.70962   0.76141   0.23361   -0.214943           
         C         C         0.20827   0.26103   0.22539   -0.216369           
         C         C         0.70769   0.24079   0.22573   -0.215820           
         C         C         0.20912   0.73923   0.22939   -0.214563           
         H         H         0.68310   0.72358   0.24988   0.107021  
         H         H         0.18143   0.22369   0.25022   0.106950  
         H         H         0.68277   0.27872   0.24644   0.107212  
         H         H         0.17961   0.77697   0.22637   0.107196  
         H         H         0.74682   0.79605   0.22112   0.108163  
         H         H         0.24596   0.29508   0.20633   0.108901  
         H         H         0.74268   0.20587   0.20593   0.108224  
         H         H         0.24877   0.70467   0.23454   0.108334  
         C         C         0.51115   0.02879   0.23385   -0.261662           
         C         C         0.00620   0.52872   0.22623   -0.263033           
         C         C         0.51141   0.97266   0.23924   -0.264672           
         C         C         0.00711   0.47262   0.23106   -0.263932           
         C         C         0.55225   0.01459   0.23944   0.162277  
         C         C         0.04742   0.51471   0.23121   0.163852  
         C         C         0.55234   0.98675   0.24185   0.163941  
         C         C         0.04788   0.48689   0.23416   0.162432  
         C         C         0.47191   0.98721   0.23210   -0.051527           
         C         C         0.96739   0.48700   0.22410   -0.050981           
         C         C         0.47176   0.01434   0.22917   -0.052499           
         C         C         0.96695   0.51414   0.22149   -0.053023           
         N         N         0.59408   0.02476   0.24421   -0.347824           
         N         N         0.08920   0.52502   0.23636   -0.344986           
         N         N         0.59422   0.97647   0.24810   -0.348795           
         N         N         0.09010   0.47673   0.24218   -0.349078           
         S         S         0.62896   0.00056   0.25164   0.437235  
         S         S         0.12462   0.50094   0.24619   0.436377  
         H         H         0.43975   0.02436   0.22549   0.112251  
         H         H         0.93510   0.52407   0.21961   0.111957  
         H         H         0.44005   0.97733   0.23109   0.111850  
         H         H         0.93580   0.47702   0.22431   0.111542  
         C         C         0.52625   0.80816   0.73902   0.029473  
         C         C         0.55015   0.83180   0.73891   0.028786  
         C         C         0.59695   0.83169   0.73830   -0.223315           
         C         C         0.61809   0.80856   0.73663   0.179940  
         C         C         0.59454   0.78535   0.73478   0.171486  
         C         C         0.54954   0.78462   0.73759   -0.228823           
         C         C         0.01752   0.30737   0.72951   0.027501  
         C         C         0.04185   0.33078   0.72867   0.029920  
         C         C         0.08848   0.33022   0.72723   -0.223611           
         C         C         0.10893   0.30689   0.72562   0.181253  
         C         C         0.08471   0.28389   0.72295   0.172024  
         C         C         0.03963   0.28359   0.72510   -0.225653           
         C         C         0.51844   0.19142   0.74069   0.028227  
         C         C         0.54223   0.16801   0.73695   0.030172  
         C         C         0.58874   0.16852   0.73436   -0.226035           
         C         C         0.60930   0.19186   0.73235   0.182173  
         C         C         0.58566   0.21485   0.73284   0.172646  
         C         C         0.54117   0.21517   0.73893   -0.227468           
         C         C         0.02607   0.69119   0.74132   0.028999  
         C         C         0.04988   0.66762   0.74093   0.030225  
         C         C         0.09711   0.66788   0.74336   -0.224790           
         C         C         0.11817   0.69110   0.74169   0.181293  
         C         C         0.09415   0.71423   0.73669   0.172005  
         C         C         0.04902   0.71481   0.73830   -0.228004           
         O         O         0.62352   0.76518   0.72989   -0.341462           
         O         O         0.11316   0.26351   0.71789   -0.342642           
         O         O         0.61390   0.23524   0.72569   -0.341982           
         O         O         0.12256   0.73447   0.72870   -0.341298           
         B         B         0.66576   0.77682   0.73155   0.577825  
         B         B         0.15579   0.27477   0.72044   0.578800  
         B         B         0.65588   0.22402   0.72400   0.577898  
         B         B         0.16494   0.72301   0.73113   0.578143  
         O         O         0.66284   0.80370   0.73549   -0.339898           
         O         O         0.15362   0.30161   0.72546   -0.340578           
         O         O         0.65344   0.19716   0.72834   -0.340683           
         O         O         0.16292   0.69616   0.74097   -0.341784           
         C         C         0.47814   0.80838   0.74007   0.030643  
         C         C         0.45501   0.83220   0.74078   0.028565  
         C         C         0.45407   0.78500   0.74028   -0.228107           
         C         C         0.40885   0.78607   0.74137   0.172700  
         C         C         0.38602   0.80942   0.73986   0.177946  
         C         C         0.40798   0.83241   0.73964   -0.223151           
         C         C         0.97001   0.30803   0.73409   0.031967  
         C         C         0.94764   0.33205   0.73653   0.027779  
         C         C         0.94599   0.28478   0.73677   -0.229669           
         C         C         0.90096   0.28603   0.73875   0.173412  
         C         C         0.87856   0.30952   0.73760   0.174723  
         C         C         0.90097   0.33243   0.73812   -0.221717           
         C         C         0.47081   0.19074   0.74474   0.032173  
         C         C         0.44811   0.16671   0.74560   0.027158  
         C         C         0.44691   0.21395   0.74796   -0.229180           
         C         C         0.40179   0.21260   0.74937   0.172712  
         C         C         0.37895   0.18909   0.74572   0.174271  
         C         C         0.40119   0.16622   0.74562   -0.220884           
         C         C         0.97813   0.69090   0.74305   0.031312  
         C         C         0.95464   0.66707   0.74254   0.028727  
         C         C         0.95483   0.71432   0.74663   -0.228078           
         C         C         0.90965   0.71338   0.74775   0.171684  
         C         C         0.88616   0.69005   0.74343   0.179557  
         C         C         0.90762   0.66699   0.74166   -0.224950           
         O         O         0.34093   0.80491   0.73942   -0.340430           
         O         O         0.83359   0.30508   0.73858   -0.342539           
         O         O         0.33383   0.19347   0.74559   -0.341928           
         O         O         0.84142   0.69476   0.74496   -0.342735           
         B         B         0.33697   0.77805   0.74153   0.580275  
         B         B         0.82960   0.27825   0.74243   0.580948  
         B         B         0.33025   0.22026   0.75118   0.579595  
         B         B         0.83870   0.72157   0.75316   0.579038  
         O         O         0.37899   0.76616   0.74397   -0.342590           
         O         O         0.87118   0.26622   0.74302   -0.340209           
         O         O         0.37239   0.23238   0.75553   -0.340022           
         O         O         0.88087   0.73341   0.75545   -0.340924           
         C         C         0.52675   0.85605   0.74148   0.030127  
         C         C         0.47945   0.85628   0.74074   0.029703  
         C         C         0.45655   0.87999   0.74157   -0.234137           
         C         C         0.48094   0.90222   0.74251   0.173542  
         C         C         0.52733   0.90198   0.74400   0.176528  
         C         C         0.55083   0.87955   0.74402   -0.229410           
         C         C         0.01911   0.35526   0.73091   0.030583  
         C         C         0.02090   0.40120   0.72928   0.175056  
         C         C         0.04334   0.37845   0.72841   -0.227494           
         C         C         0.51914   0.14354   0.73782   0.028926  
         C         C         0.47269   0.14281   0.74303   0.029180  
         C         C         0.45064   0.11874   0.74455   -0.235349           
         C         C         0.47488   0.09677   0.73968   0.172310  
         C         C         0.52008   0.09765   0.73316   0.176969  
         C         C         0.54262   0.12036   0.73150   -0.226860           
         C         C         0.02577   0.64333   0.73907   0.027780  
         C         C         0.02530   0.59741   0.73336   0.174313  
         C         C         0.04870   0.61992   0.73321   -0.227452           
         C         C         0.97239   0.35600   0.73421   0.029686  
         C         C         0.95051   0.38008   0.73535   -0.234979           
         C         C         0.97523   0.40207   0.73256   0.174542  
         C         C         0.97879   0.64297   0.74085   0.030986  
         C         C         0.95599   0.61910   0.74150   -0.236010           
         C         C         0.97989   0.59690   0.73853   0.176212  
         O         O         0.54292   0.92685   0.74283   -0.322066           
         O         O         0.03739   0.42580   0.72589   -0.322134           
         O         O         0.53584   0.07307   0.72635   -0.320556           
         O         O         0.04031   0.57269   0.72583   -0.322042           
         B         B         0.50512   0.94226   0.74205   0.607569  
         B         B         0.00105   0.44186   0.72998   0.606717  
         B         B         0.49964   0.05705   0.73200   0.604922  
         B         B         0.00346   0.55697   0.72999   0.606515  
         O         O         0.46635   0.92738   0.74241   -0.345351           
         O         O         0.96198   0.42751   0.73331   -0.347128           
         O         O         0.46137   0.07133   0.73999   -0.346946           
         O         O         0.96549   0.57157   0.73762   -0.347041           
         H         H         0.61585   0.84925   0.73649   0.136900  
         H         H         0.53302   0.76625   0.73940   0.136418  
         H         H         0.47033   0.76654   0.73963   0.136020  
         H         H         0.38929   0.85004   0.74053   0.136158  
         H         H         0.42108   0.88095   0.74369   0.134403  
         H         H         0.58653   0.88029   0.74348   0.137543  
         H         H         0.10795   0.34755   0.72530   0.136540  
         H         H         0.02185   0.26542   0.72216   0.136437  
         H         H         0.07841   0.37879   0.72352   0.137684  
         H         H         0.60786   0.15117   0.73115   0.136523  
         H         H         0.52454   0.23341   0.74186   0.136862  
         H         H         0.46325   0.23251   0.74989   0.136655  
         H         H         0.38293   0.14843   0.74743   0.134823  
         H         H         0.41601   0.11740   0.75198   0.133981  
         H         H         0.57695   0.12005   0.72167   0.137048  
         H         H         0.11640   0.65039   0.74383   0.136398  
         H         H         0.03175   0.73312   0.73510   0.136788  
         H         H         0.08312   0.61929   0.72404   0.137052  
         H         H         0.96214   0.26626   0.73713   0.136790  
         H         H         0.88299   0.35020   0.74147   0.135817  
         H         H         0.91557   0.38142   0.74079   0.134264  
         H         H         0.97199   0.73275   0.75117   0.136762  
         H         H         0.88885   0.64933   0.74257   0.135616  
         H         H         0.92097   0.61807   0.74659   0.134272  
         C         C         0.79449   0.73585   0.75381   -0.215470           
         C         C         0.28544   0.23435   0.74807   -0.217287           
         C         C         0.78512   0.26411   0.74276   -0.216638           
         C         C         0.29227   0.76374   0.73935   -0.213790           
         C         C         0.75472   0.72238   0.75786   -0.068529           
         C         C         0.24608   0.22066   0.75302   -0.067651           
         C         C         0.74631   0.27792   0.75000   -0.068608           
         C         C         0.25130   0.77738   0.73296   -0.069129           
         C         C         0.75014   0.77578   0.73093   -0.069148           
         C         C         0.23978   0.27399   0.71926   -0.068211           
         C         C         0.73919   0.22460   0.71840   -0.069391           
         C         C         0.24940   0.72391   0.73271   -0.070508           
         H         H         0.75683   0.70159   0.77040   0.107561  
         H         H         0.24886   0.19989   0.76716   0.107775  
         H         H         0.74969   0.29868   0.76490   0.107983  
         H         H         0.25212   0.79823   0.73298   0.107877  
         C         C         0.79160   0.76278   0.74113   -0.051839           
         C         C         0.28169   0.26124   0.73122   -0.053653           
         C         C         0.78104   0.23718   0.72780   -0.053307           
         C         C         0.29059   0.73676   0.73901   -0.052450           
         C         C         0.71333   0.73539   0.74825   -0.053214           
         C         C         0.20423   0.23342   0.74165   -0.051916           
         C         C         0.70444   0.26532   0.74052   -0.049966           
         C         C         0.21017   0.76453   0.72713   -0.051451           
         H         H         0.82201   0.77336   0.73715   0.106642  
         H         H         0.31165   0.27191   0.72476   0.108115  
         H         H         0.81068   0.22629   0.72135   0.107989  
         H         H         0.32168   0.72600   0.74158   0.106498  
         C         C         0.71028   0.76232   0.73435   -0.213221           
         C         C         0.20042   0.26029   0.72457   -0.214385           
         C         C         0.70023   0.23845   0.72469   -0.215515           
         C         C         0.20863   0.73755   0.72779   -0.213710           
         H         H         0.68328   0.72479   0.75457   0.106488  
         H         H         0.17439   0.22268   0.74841   0.105432  
         H         H         0.67493   0.27622   0.74778   0.105946  
         H         H         0.17903   0.77531   0.72413   0.106544  
         H         H         0.74819   0.79658   0.71918   0.108843  
         H         H         0.23706   0.29476   0.70462   0.108700  
         H         H         0.73600   0.20384   0.70432   0.108497  
         H         H         0.24838   0.70306   0.73151   0.108714  
         C         C         0.50126   0.02760   0.73007   -0.263065           
         C         C         0.00346   0.52751   0.72495   -0.263249           
         C         C         0.50444   0.97167   0.73721   -0.265079           
         C         C         0.00254   0.47138   0.72740   -0.261881           
         C         C         0.54327   0.01409   0.73731   0.163474  
         C         C         0.04439   0.51314   0.73093   0.163697  
         C         C         0.54484   0.98631   0.74098   0.165930  
         C         C         0.04423   0.48531   0.73419   0.164455  
         C         C         0.46390   0.98551   0.72816   -0.052192           
         C         C         0.96293   0.48613   0.71801   -0.053390           
         C         C         0.46238   0.01261   0.72481   -0.053630           
         C         C         0.96353   0.51327   0.71789   -0.053498           
         N         N         0.58476   0.02490   0.74297   -0.346101           
         N         N         0.08648   0.52318   0.73678   -0.347027           
         N         N         0.58744   0.97663   0.74911   -0.348391           
         N         N         0.08649   0.47488   0.74401   -0.347686           
         S         S         0.62096   0.00126   0.75254   0.440635  
         S         S         0.12152   0.49885   0.74804   0.438738  
         H         H         0.42982   0.02211   0.72062   0.111661  
         H         H         0.93187   0.52349   0.71531   0.111940  
         H         H         0.43249   0.97502   0.72615   0.111651  
         H         H         0.93042   0.47641   0.71328   0.111682 

