
##########################################################################
#               Crystallographic Information Format file
#               Produced by PyCifRW module
#
#  This is a CIF file.  CIF has been adopted by the International
#  Union of Crystallography as the standard for data archiving and
#  transmission.
#
#  For information on this file format, follow the CIF links at
#  http://www.iucr.org
##########################################################################

data_image0

_cell_length_a                          32.9812
_cell_length_b                          54.2532
_cell_length_c                          7.85488
_cell_angle_alpha                       118.95
_cell_angle_beta                        74.6592
_cell_angle_gamma                       90.427
_symmetry_space_group_name_H-M          'P 1'
_space_group_name_Hall                  'P 1'
loop_
  _atom_site_type_symbol
  _atom_site_label
  _atom_site_fract_x
  _atom_site_fract_y
  _atom_site_fract_z
  _atom_site_charge
         C         C         0.49564   0.51409   0.21964   0.032582  
         C         C         0.53843   0.51330   0.22735   0.025346  
         C         C         0.56068   0.53649   0.24371   -0.219469           
         C         C         0.54027   0.55914   0.25124   0.171379  
         C         C         0.49819   0.56012   0.24629   0.176626  
         C         C         0.47550   0.53815   0.23089   -0.222968           
         O         O         0.48542   0.58588   0.26518   -0.346904           
         B         B         0.52123   0.60032   0.27984   0.593097  
         O         O         0.55541   0.58387   0.26916   -0.322362           
         C         C         0.47244   0.49048   0.20584   0.028892  
         C         C         0.49193   0.46723   0.20802   0.032493  
         C         C         0.43031   0.49068   0.19182   -0.229156           
         C         C         0.40886   0.46863   0.18660   0.173307  
         C         C         0.42783   0.44604   0.19077   0.168485  
         C         C         0.46868   0.44472   0.20022   -0.234557           
         O         O         0.39942   0.42682   0.18269   -0.337482           
         B         B         0.36254   0.43837   0.17238   0.596608  
         O         O         0.36800   0.46419   0.17337   -0.336746           
         C         C         0.55898   0.48889   0.22003   0.029394  
         C         C         0.53565   0.46637   0.21525   0.029957  
         C         C         0.55539   0.44303   0.21369   -0.216738           
         C         C         0.59678   0.44274   0.21685   0.171086  
         C         C         0.61983   0.46465   0.21923   0.172281  
         C         C         0.60199   0.48758   0.22028   -0.232221           
         O         O         0.66059   0.45888   0.21927   -0.327871           
         B         B         0.66188   0.43262   0.21477   0.582541  
         O         O         0.62244   0.42254   0.21608   -0.350061           
         H         H         0.59285   0.53708   0.25406   0.138822  
         H         H         0.44291   0.53962   0.22843   0.136868  
         H         H         0.41500   0.50748   0.18310   0.135261  
         H         H         0.48220   0.42675   0.20210   0.135420  
         H         H         0.53860   0.42565   0.21088   0.137324  
         H         H         0.62096   0.50399   0.22049   0.137809  
         C         C         0.49646   0.80230   0.41671   0.032223  
         C         C         0.53986   0.80257   0.41697   0.026617  
         C         C         0.56160   0.77969   0.41247   -0.219933           
         C         C         0.53994   0.75785   0.40969   0.184407  
         C         C         0.49761   0.75749   0.40805   0.179112  
         C         C         0.47535   0.77920   0.41268   -0.228635           
         O         O         0.48415   0.73299   0.40313   -0.343380           
         B         B         0.51968   0.71850   0.40082   0.586087  
         O         O         0.55408   0.73384   0.40831   -0.331322           
         C         C         0.47398   0.82565   0.41998   0.032615  
         C         C         0.49562   0.84867   0.42156   0.029837  
         C         C         0.43105   0.82543   0.41777   -0.231703           
         C         C         0.41144   0.84774   0.41845   0.176689  
         C         C         0.43271   0.87027   0.42077   0.179794  
         C         C         0.47416   0.87123   0.42212   -0.232742           
         O         O         0.40584   0.88970   0.42084   -0.332415           
         B         B         0.36775   0.87806   0.41415   0.583821  
         O         O         0.37035   0.85224   0.41544   -0.341400           
         C         C         0.56170   0.82634   0.42156   0.027378  
         C         C         0.53983   0.84893   0.42150   0.025559  
         C         C         0.56107   0.87190   0.42294   -0.228905           
         C         C         0.60228   0.87197   0.42845   0.178358  
         C         C         0.62374   0.84998   0.42999   0.172370  
         C         C         0.60449   0.82726   0.42735   -0.233547           
         O         O         0.66463   0.85557   0.43575   -0.334187           
         B         B         0.66724   0.88153   0.43577   0.587219  
         O         O         0.62882   0.89205   0.43268   -0.337671           
         H         H         0.59444   0.77915   0.41265   0.137272  
         H         H         0.44239   0.77843   0.41450   0.135512  
         H         H         0.41379   0.80816   0.41336   0.134943  
         H         H         0.48962   0.88880   0.41983   0.134093  
         H         H         0.54572   0.88924   0.42029   0.135406  
         H         H         0.62201   0.81072   0.43031   0.136628  
         C         C         0.03586   0.28733   0.21451   0.030112  
         C         C         0.99133   0.28802   0.23652   0.032402  
         C         C         0.96998   0.26633   0.25765   -0.227621           
         C         C         0.99329   0.24474   0.25047   0.176893  
         C         C         0.03728   0.24335   0.21756   0.175722  
         C         C         0.05890   0.26414   0.20077   -0.221777           
         O         O         0.05269   0.21937   0.21351   -0.341873           
         B         B         0.01669   0.20661   0.25073   0.580431  
         O         O         0.97969   0.22215   0.27442   -0.340890           
         C         C         0.05762   0.31043   0.20635   0.028366  
         C         C         0.03486   0.33321   0.21176   0.029243  
         C         C         0.10132   0.31064   0.19651   -0.234678           
         C         C         0.12055   0.33289   0.19049   0.172188  
         C         C         0.09835   0.35505   0.19385   0.178512  
         C         C         0.05620   0.35561   0.20269   -0.228834           
         O         O         0.12532   0.37441   0.18555   -0.334710           
         B         B         0.16466   0.36346   0.17817   0.595355  
         O         O         0.16223   0.33777   0.18177   -0.341003           
         C         C         0.96825   0.31101   0.23766   0.028723  
         C         C         0.98987   0.33335   0.22550   0.032974  
         C         C         0.96761   0.35569   0.22628   -0.231862           
         C         C         0.92556   0.35491   0.23452   0.186143  
         C         C         0.90454   0.33274   0.24094   0.172888  
         C         C         0.92477   0.31093   0.24397   -0.224457           
         O         O         0.86316   0.33673   0.23896   -0.337586           
         B         B         0.85983   0.36218   0.23245   0.573927  
         O         O         0.89803   0.37384   0.23310   -0.339181           
         H         H         0.93594   0.26687   0.28403   0.134985  
         H         H         0.09277   0.26258   0.18042   0.135310  
         H         H         0.11951   0.29400   0.19566   0.136279  
         H         H         0.04017   0.37294   0.20226   0.135468  
         H         H         0.98287   0.37285   0.21557   0.135833  
         H         H         0.90776   0.29387   0.24631   0.135466  
         C         C         0.04476   0.02435   0.36717   0.027969  
         C         C         0.00057   0.02480   0.38444   0.028006  
         C         C         0.97777   0.04771   0.39360   -0.223194           
         C         C         -0.00037  0.06823   0.37434   0.174199  
         C         C         0.04346   0.06704   0.34586   0.175847  
         C         C         0.06642   0.04583   0.34415   -0.222775           
         O         O         0.05718   0.08972   0.32220   -0.346377           
         B         B         0.02035   0.10466   0.33791   0.576049  
         O         O         0.98429   0.09189   0.37438   -0.343870           
         C         C         0.06722   0.00180   0.37260   0.027661  
         C         C         0.04567   0.97936   0.38323   0.032049  
         C         C         0.11029   0.00244   0.37365   -0.240615           
         C         C         0.13024   0.98099   0.38111   0.174740  
         C         C         0.10960   0.95836   0.38221   0.170759  
         C         C         0.06801   0.95710   0.38357   -0.225240           
         O         O         0.13715   0.93971   0.38673   -0.336562           
         B         B         0.17502   0.95186   0.39065   0.594834  
         O         O         0.17116   0.97749   0.38840   -0.343175           
         C         C         0.97876   0.00182   0.39275   0.031649  
         C         C         0.00087   0.97940   0.39373   0.028955  
         C         C         0.97894   0.95735   0.40596   -0.225690           
         C         C         0.93701   0.95796   0.41085   0.167650  
         C         C         0.91573   0.97969   0.40579   0.169572  
         C         C         0.93553   0.00146   0.39570   -0.230058           
         O         O         0.87433   0.97494   0.40897   -0.332189           
         B         B         0.87090   0.94969   0.41725   0.595142  
         O         O         0.90934   0.93885   0.41880   -0.341352           
         H         H         0.94401   0.04928   0.41170   0.138198  
         H         H         0.10037   0.04543   0.32106   0.136765  
         H         H         0.12735   0.01949   0.37121   0.136918  
         H         H         0.05286   0.93961   0.38916   0.135627  
         H         H         0.99446   0.94033   0.41158   0.136607  
         H         H         0.91809   0.01748   0.38726   0.134037  
         C         C         0.52020   0.68892   0.38186   -0.272291           
         C         C         0.48764   0.67281   0.33250   -0.054804           
         C         C         0.55581   0.64652   0.36220   0.175692  
         N         N         0.59115   0.63713   0.38340   -0.344146           
         S         S         0.61907   0.66328   0.44325   0.435959  
         N         N         0.58949   0.68732   0.44574   -0.343137           
         H         H         0.46074   0.68219   0.31673   0.113594  
         C         C         0.55495   0.67542   0.39779   0.158142  
         C         C         0.48839   0.64474   0.29971   -0.050325           
         C         C         0.52180   0.63068   0.31164   -0.256206           
         H         H         0.46170   0.63357   0.26192   0.111663  
         C         C         0.82017   0.37600   0.22955   -0.301796           
         C         C         0.70093   0.41771   0.21349   -0.302495           
         S         S         0.82015   0.40894   0.23885   0.166783  
         S         S         0.70120   0.38454   0.19918   0.167623  
         C         C         0.76866   0.40919   0.22620   -0.024714           
         C         C         0.75249   0.38436   0.21467   -0.018825           
         C         C         0.78180   0.36566   0.21647   -0.103486           
         C         C         0.73927   0.42812   0.22762   -0.113586           
         H         H         0.77594   0.34546   0.20841   0.140387  
         H         H         0.74499   0.44838   0.23678   0.139000  
         C         C         0.20448   0.37780   0.16951   -0.313821           
         C         C         0.32275   0.42384   0.16408   -0.320300           
         S         S         0.25206   0.36247   0.15955   0.179596  
         S         S         0.27532   0.43894   0.17078   0.184533  
         C         C         0.27772   0.39038   0.15888   -0.025246           
         C         C         0.24986   0.41069   0.16537   -0.030839           
         C         C         0.20847   0.40337   0.16955   -0.123976           
         C         C         0.31889   0.39783   0.15786   -0.117951           
         H         H         0.18226   0.41581   0.17335   0.143384  
         H         H         0.34501   0.38526   0.15340   0.141736  
         C         C         0.83059   0.93601   0.42317   -0.315108           
         C         C         0.70718   0.89572   0.43448   -0.321834           
         S         S         0.82941   0.90372   0.42183   0.179606  
         S         S         0.70822   0.92809   0.43634   0.183549  
         C         C         0.77655   0.90391   0.43037   -0.023107           
         C         C         0.76080   0.92838   0.43400   -0.034840           
         C         C         0.79153   0.94655   0.43002   -0.120701           
         C         C         0.74604   0.88551   0.43156   -0.110539           
         H         H         0.78620   0.96646   0.43258   0.141814  
         H         H         0.75131   0.86569   0.43024   0.142088  
         C         C         0.21405   0.93838   0.39868   -0.307463           
         C         C         0.32901   0.89247   0.41032   -0.299023           
         S         S         0.25990   0.95448   0.42132   0.171867  
         S         S         0.28304   0.87665   0.39043   0.192775  
         C         C         0.28527   0.92595   0.41247   -0.032516           
         C         C         0.25817   0.90503   0.39641   -0.032752           
         C         C         0.21803   0.91215   0.38820   -0.119318           
         C         C         0.32546   0.91872   0.42018   -0.122048           
         H         H         0.19264   0.89913   0.37472   0.139731  
         H         H         0.35123   0.93145   0.43125   0.142828  
         C         C         0.01973   0.13114   0.31461   -0.210370           
         C         C         0.05770   0.14091   0.25519   -0.054100           
         C         C         0.97977   0.17006   0.33019   -0.065960           
         H         H         0.08797   0.12940   0.22519   0.105343  
         C         C         0.98081   0.14602   0.35087   -0.058952           
         C         C         0.05667   0.16502   0.23553   -0.063624           
         H         H         0.95135   0.13862   0.39692   0.108497  
         C         C         0.01768   0.17998   0.27246   -0.213770           
         H         H         0.08612   0.17250   0.19058   0.107508  
         H         H         0.94950   0.18148   0.35950   0.110922  
         C         C         0.46959   0.51993   0.71945   0.027706  
         C         C         0.51242   0.51968   0.72730   0.030920  
         C         C         0.53394   0.54315   0.74573   -0.225021           
         C         C         0.51271   0.56554   0.75436   0.175147  
         C         C         0.47092   0.56580   0.74535   0.172691  
         C         C         0.44883   0.54359   0.72876   -0.224646           
         O         O         0.45792   0.59106   0.75853   -0.344898           
         B         B         0.49303   0.60597   0.77629   0.591330  
         O         O         0.52712   0.59040   0.77302   -0.321076           
         C         C         0.44708   0.49609   0.70606   0.025483  
         C         C         0.46754   0.47298   0.70622   0.029470  
         C         C         0.40469   0.49593   0.69552   -0.234008           
         C         C         0.38430   0.47347   0.68885   0.175547  
         C         C         0.40430   0.45093   0.68995   0.175282  
         C         C         0.44522   0.45013   0.69849   -0.232727           
         O         O         0.37676   0.43126   0.68150   -0.333837           
         B         B         0.33933   0.44259   0.67547   0.592615  
         O         O         0.34340   0.46866   0.67893   -0.338332           
         C         C         0.53377   0.49553   0.71912   0.029955  
         C         C         0.51125   0.47268   0.71324   0.029117  
         C         C         0.53152   0.44966   0.71283   -0.228247           
         C         C         0.57297   0.44994   0.71582   0.184086  
         C         C         0.59525   0.47212   0.71854   0.174805  
         C         C         0.57671   0.49486   0.72030   -0.230073           
         O         O         0.63619   0.46687   0.71943   -0.334649           
         B         B         0.63800   0.44084   0.71832   0.574668  
         O         O         0.59919   0.43003   0.71464   -0.336767           
         H         H         0.56621   0.54401   0.75468   0.138331  
         H         H         0.41647   0.54445   0.72242   0.136057  
         H         H         0.38839   0.51282   0.69122   0.134962  
         H         H         0.45947   0.43231   0.69980   0.136090  
         H         H         0.51531   0.43218   0.71223   0.135161  
         H         H         0.59500   0.51166   0.72325   0.136942  
         C         C         0.45948   0.80832   0.92116   0.027790  
         C         C         0.50264   0.80886   0.92412   0.029749  
         C         C         0.52468   0.78606   0.91896   -0.212257           
         C         C         0.50354   0.76394   0.91315   0.172660  
         C         C         0.46109   0.76340   0.91310   0.173385  
         C         C         0.43859   0.78506   0.91718   -0.223855           
         O         O         0.44858   0.73835   0.90376   -0.347218           
         B         B         0.48503   0.72380   0.89536   0.589516  
         O         O         0.51899   0.73946   0.90194   -0.318218           
         C         C         0.43742   0.83154   0.92066   0.028266  
         C         C         0.45916   0.85445   0.92035   0.033609  
         C         C         0.39458   0.83126   0.91615   -0.236904           
         C         C         0.37530   0.85318   0.91106   0.176495  
         C         C         0.39639   0.87585   0.91456   0.172261  
         C         C         0.43762   0.87697   0.91966   -0.223282           
         O         O         0.36930   0.89503   0.91238   -0.337522           
         B         B         0.33104   0.88331   0.90714   0.591519  
         O         O         0.33450   0.85730   0.90484   -0.344716           
         C         C         0.52445   0.83251   0.92836   0.029738  
         C         C         0.50325   0.85482   0.92281   0.028657  
         C         C         0.52531   0.87734   0.92044   -0.228154           
         C         C         0.56650   0.87709   0.92706   0.168948  
         C         C         0.58699   0.85540   0.93542   0.169987  
         C         C         0.56697   0.83322   0.93710   -0.227672           
         O         O         0.62793   0.86054   0.94270   -0.331749           
         B         B         0.63175   0.88605   0.93810   0.596877  
         O         O         0.59409   0.89654   0.92753   -0.344987           
         H         H         0.55749   0.78547   0.91916   0.142234  
         H         H         0.40583   0.78395   0.91558   0.135469  
         H         H         0.37691   0.81435   0.91675   0.136427  
         H         H         0.45305   0.89471   0.92067   0.135077  
         H         H         0.51061   0.89444   0.91288   0.135524  
         H         H         0.58381   0.81700   0.94597   0.136514  
         C         C         0.00993   0.29610   0.73218   0.029472  
         C         C         0.96583   0.29654   0.74696   0.026309  
         C         C         0.94415   0.27489   0.76634   -0.220911           
         C         C         0.96670   0.25384   0.76763   0.175103  
         C         C         0.01034   0.25282   0.74437   0.176704  
         C         C         0.03241   0.27336   0.72629   -0.225812           
         O         O         0.02502   0.22922   0.74686   -0.342625           
         B         B         0.98884   0.21639   0.77974   0.573900  
         O         O         0.95243   0.23129   0.79122   -0.347648           
         C         C         0.03199   0.31893   0.72265   0.030486  
         C         C         0.01004   0.34141   0.72184   0.027082  
         C         C         0.07547   0.31894   0.71582   -0.230673           
         C         C         0.09554   0.34037   0.70151   0.174845  
         C         C         0.07426   0.36224   0.69794   0.166251  
         C         C         0.03207   0.36335   0.70833   -0.231598           
         O         O         0.10216   0.38093   0.68440   -0.335420           
         B         B         0.14078   0.36980   0.68235   0.593139  
         O         O         0.13734   0.34468   0.69206   -0.337241           
         C         C         0.94342   0.31933   0.74369   0.032331  
         C         C         0.96526   0.34161   0.73245   0.032053  
         C         C         0.94331   0.36398   0.73202   -0.217862           
         C         C         0.90158   0.36309   0.73579   0.169659  
         C         C         0.88038   0.34084   0.74029   0.173684  
         C         C         0.90014   0.31917   0.74647   -0.240741           
         O         O         0.83927   0.34484   0.73686   -0.329970           
         B         B         0.83583   0.37057   0.73533   0.580415  
         O         O         0.87430   0.38196   0.73199   -0.350278           
         H         H         0.91047   0.27480   0.78271   0.134733  
         H         H         0.06604   0.27201   0.71144   0.138521  
         H         H         0.09289   0.30287   0.72379   0.134949  
         H         H         0.01670   0.38058   0.70440   0.136143  
         H         H         0.95874   0.38131   0.72502   0.137249  
         H         H         0.88271   0.30240   0.75158   0.135755  
         C         C         0.00727   0.03234   0.88271   0.033477  
         C         C         0.96270   0.03383   0.90561   0.029781  
         C         C         0.94061   0.05751   0.92059   -0.227641           
         C         C         0.96333   0.07787   0.90229   0.179096  
         C         C         0.00737   0.07557   0.86782   0.175669  
         C         C         0.02965   0.05363   0.86112   -0.224868           
         O         O         0.02228   0.09784   0.84292   -0.340138           
         B         B         0.98605   0.11424   0.86829   0.580068  
         O         O         0.94920   0.10224   0.90711   -0.343270           
         C         C         0.02954   0.00894   0.88044   0.029986  
         C         C         0.00703   0.98697   0.89356   0.030569  
         C         C         0.07313   0.00826   0.87161   -0.225267           
         C         C         0.09252   0.98612   0.87397   0.174312  
         C         C         0.07066   0.96436   0.88247   0.181454  
         C         C         0.02847   0.96427   0.89220   -0.232627           
         O         O         0.09758   0.94502   0.88363   -0.334805           
         B         B         0.13629   0.95608   0.88188   0.588177  
         O         O         0.13381   0.98144   0.87397   -0.344993           
         C         C         0.94007   0.01089   0.91223   0.024450  
         C         C         0.96195   0.98792   0.90840   0.027986  
         C         C         0.93977   0.96577   0.91685   -0.225615           
         C         C         0.89782   0.96671   0.92258   0.178377  
         C         C         0.87647   0.98889   0.92265   0.172342  
         C         C         0.89659   0.01094   0.91740   -0.234474           
         O         O         0.83485   0.98413   0.92644   -0.336134           
         B         B         0.83177   0.95841   0.92943   0.585554  
         O         O         0.87048   0.94740   0.92708   -0.336442           
         H         H         0.90667   0.05965   0.94311   0.134566  
         H         H         0.06370   0.05264   0.83547   0.135841  
         H         H         0.09105   0.02482   0.86612   0.133965  
         H         H         0.01242   0.94737   0.90350   0.134391  
         H         H         0.95503   0.94816   0.91699   0.136374  
         H         H         0.87931   0.02770   0.91566   0.135219  
         C         C         0.48755   0.69386   0.87102   -0.255060           
         C         C         0.45561   0.67708   0.82384   -0.050111           
         C         C         0.52600   0.65232   0.85054   0.174114  
         N         N         0.56187   0.64366   0.87149   -0.337691           
         S         S         0.58793   0.67064   0.93717   0.444629  
         N         N         0.55697   0.69409   0.93858   -0.348523           
         H         H         0.42780   0.68588   0.81042   0.113145  
         C         C         0.52336   0.68121   0.88663   0.164999  
         C         C         0.45790   0.64905   0.79221   -0.052955           
         C         C         0.49248   0.63590   0.80294   -0.273756           
         H         H         0.43168   0.63720   0.75644   0.115928  
         C         C         0.79613   0.38447   0.73435   -0.300176           
         C         C         0.67722   0.42625   0.71771   -0.303786           
         S         S         0.79613   0.41746   0.74574   0.171054  
         S         S         0.67698   0.39336   0.70862   0.164398  
         C         C         0.74494   0.41762   0.73003   -0.021400           
         C         C         0.72857   0.39291   0.72005   -0.024756           
         C         C         0.75780   0.37405   0.72038   -0.114831           
         C         C         0.71579   0.43637   0.72834   -0.103917           
         H         H         0.75179   0.35394   0.71338   0.137348  
         H         H         0.72192   0.45643   0.73452   0.142396  
         C         C         0.18075   0.38366   0.67464   -0.322141           
         C         C         0.29963   0.42830   0.66978   -0.319143           
         S         S         0.22751   0.36810   0.66872   0.188832  
         S         S         0.25301   0.44391   0.67430   0.181597  
         C         C         0.25366   0.39580   0.67015   -0.032502           
         C         C         0.22659   0.41624   0.67372   -0.025752           
         C         C         0.18519   0.40929   0.67619   -0.116462           
         C         C         0.29499   0.40279   0.66940   -0.122449           
         H         H         0.15932   0.42204   0.68065   0.142285  
         H         H         0.32052   0.39035   0.67014   0.143841  
         C         C         0.79182   0.94422   0.93543   -0.318969           
         C         C         0.67120   0.90078   0.94287   -0.311902           
         S         S         0.79242   0.91215   0.93822   0.182434  
         S         S         0.67052   0.93297   0.94207   0.175433  
         C         C         0.74011   0.91047   0.93759   -0.035875           
         C         C         0.72308   0.93430   0.93759   -0.022529           
         C         C         0.75251   0.95333   0.93534   -0.112035           
         C         C         0.71065   0.89151   0.94059   -0.117182           
         H         H         0.74600   0.97273   0.93300   0.141086  
         H         H         0.71736   0.87190   0.93999   0.141485  
         C         C         0.17555   0.94183   0.88520   -0.295851           
         C         C         0.29180   0.89713   0.90138   -0.303647           
         S         S         0.22139   0.95798   0.90468   0.188240  
         S         S         0.24604   0.88076   0.87993   0.171687  
         C         C         0.24684   0.93002   0.90181   -0.031323           
         C         C         0.22010   0.90896   0.88686   -0.032784           
         C         C         0.17972   0.91578   0.87810   -0.124800           
         C         C         0.28719   0.92328   0.91074   -0.118024           
         H         H         0.15423   0.90285   0.86851   0.143718  
         H         H         0.31235   0.93649   0.92328   0.139585  
         C         C         0.98682   0.14104   0.84770   -0.209847           
         C         C         0.02562   0.15021   0.79098   -0.066977           
         C         C         0.94957   0.18090   0.86220   -0.053465           
         H         H         0.05517   0.13825   0.76405   0.111369  
         C         C         0.94879   0.15687   0.88325   -0.064409           
         C         C         0.02638   0.17421   0.76913   -0.061470           
         H         H         0.91861   0.15014   0.92853   0.106248  
         C         C         0.98840   0.18987   0.80317   -0.207709           
         H         H         0.05661   0.18092   0.72405   0.109878  
         H         H         0.92002   0.19306   0.89107   0.104164 

