
##########################################################################
#               Crystallographic Information Format file
#               Produced by PyCifRW module
#
#  This is a CIF file.  CIF has been adopted by the International
#  Union of Crystallography as the standard for data archiving and
#  transmission.
#
#  For information on this file format, follow the CIF links at
#  http://www.iucr.org
##########################################################################

data_image0

_cell_length_a                          36.8719
_cell_length_b                          36.6495
_cell_length_c                          8.5437
_cell_angle_alpha                       91.1851
_cell_angle_beta                        90.8035
_cell_angle_gamma                       89.8369
_symmetry_space_group_name_H-M          'P 1'
_space_group_name_Hall                  'P 1'
loop_
  _atom_site_type_symbol
  _atom_site_label
  _atom_site_fract_x
  _atom_site_fract_y
  _atom_site_fract_z
  _atom_site_charge
         C         C         0.26784   0.75698   0.50267   0.036260  
         C         C         0.23350   0.73267   0.50349   0.044146  
         C         C         0.25328   0.74452   0.76394   0.538672  
         C         C         0.22982   0.76749   0.87374   -0.519508           
         C         C         0.23376   0.81644   0.44613   0.024153  
         C         C         0.23568   0.83674   0.58718   -0.116561           
         C         C         0.20776   0.86050   0.62871   -0.130713           
         C         C         0.17742   0.86528   0.52923   0.048302  
         C         C         0.17549   0.84498   0.38803   -0.105998           
         C         C         0.20330   0.82089   0.34771   -0.145059           
         C         C         0.26543   0.79157   0.39901   0.206577  
         C         C         0.14936   0.89126   0.57635   0.071133  
         C         C         0.09655   0.92440   0.55421   0.200106  
         N         N         0.12089   0.89844   0.49228   -0.294492           
         C         C         0.30035   0.81407   0.40531   0.046718  
         C         C         0.33092   0.80527   0.49577   -0.137498           
         C         C         0.36135   0.82796   0.49774   -0.133244           
         C         C         0.36194   0.85980   0.40919   0.053201  
         C         C         0.33129   0.86821   0.31598   -0.109803           
         C         C         0.30109   0.84577   0.31484   -0.117112           
         C         C         0.27972   0.71986   0.85145   -0.520287           
         C         C         0.39382   0.88344   0.41472   0.062739  
         N         N         0.39486   0.91285   0.33421   -0.292970           
         C         C         0.42609   0.93454   0.32741   0.188274  
         C         C         0.26563   0.67205   0.43596   0.018281  
         C         C         0.29610   0.66778   0.34003   -0.146680           
         C         C         0.32383   0.64332   0.37707   -0.106685           
         C         C         0.32193   0.62247   0.51283   0.054075  
         C         C         0.29147   0.62679   0.60905   -0.129562           
         C         C         0.26370   0.65095   0.57087   -0.114561           
         C         C         0.23411   0.69764   0.39534   0.205096  
         C         C         0.35033   0.59682   0.55942   0.067662  
         C         C         0.40363   0.56431   0.54049   0.198551  
         N         N         0.37876   0.58951   0.47750   -0.290415           
         C         C         0.19866   0.67602   0.40027   0.043406  
         C         C         0.19658   0.64400   0.30645   -0.115952           
         C         C         0.16624   0.62182   0.30781   -0.108553           
         C         C         0.13662   0.63094   0.40405   0.051728  
         C         C         0.13835   0.66326   0.49485   -0.130341           
         C         C         0.16905   0.68564   0.49309   -0.134496           
         C         C         0.10499   0.60699   0.41060   0.064771  
         N         N         0.10410   0.57684   0.33006   -0.288867           
         C         C         0.07384   0.55387   0.32266   0.189013  
         O         O         0.27267   0.76830   0.66286   -0.303197           
         O         O         0.23632   0.70955   0.23508   -0.508995           
         O         O         0.23045   0.72216   0.66280   -0.309182           
         O         O         0.26193   0.77947   0.23781   -0.524025           
         C         C         0.10796   0.95639   0.63434   -0.188344           
         C         C         0.08270   0.97867   0.71029   -0.145190           
         C         C         0.04571   0.97001   0.70838   0.114519  
         C         C         0.03415   0.93980   0.61715   -0.136619           
         C         C         0.05908   0.91756   0.53937   -0.169687           
         C         C         0.39289   0.53300   0.62061   -0.185096           
         C         C         0.41871   0.51192   0.69844   -0.139012           
         C         C         0.45560   0.52100   0.69801   0.113695  
         C         C         0.46652   0.55022   0.60622   -0.133116           
         C         C         0.44098   0.57135   0.52679   -0.166585           
         C         C         0.03753   0.56499   0.34402   -0.174844           
         C         C         0.00922   0.54066   0.31306   -0.131008           
         C         C         0.01604   0.50475   0.26065   0.114936  
         C         C         0.08065   0.51737   0.27781   -0.155879           
         C         C         0.46162   0.92340   0.36804   -0.177295           
         C         C         0.49114   0.94584   0.33980   -0.127286           
         C         C         0.48639   0.97990   0.26948   0.115493  
         C         C         0.45095   0.99166   0.23650   -0.143754           
         C         C         0.42126   0.96939   0.26429   -0.151518           
         C         C         0.51826   0.00113   0.20896   -0.247836           
         C         C         0.02004   0.99022   0.81642   -0.246920           
         C         C         0.23601   0.21824   0.52007   0.040881  
         C         C         0.26430   0.24910   0.50404   0.044691  
         C         C         0.25463   0.23788   0.77277   0.532724  
         C         C         0.27821   0.21071   0.86053   -0.516543           
         C         C         0.17400   0.19137   0.43466   -0.000019           
         C         C         0.17957   0.16152   0.53199   -0.130606           
         C         C         0.15411   0.13329   0.53458   -0.131577           
         C         C         0.12278   0.13402   0.43916   0.057995  
         C         C         0.11731   0.16412   0.34116   -0.104635           
         C         C         0.14232   0.19230   0.34019   -0.134478           
         C         C         0.20019   0.22343   0.42281   0.204115  
         C         C         0.09700   0.10369   0.43781   0.056686  
         C         C         0.04737   0.07229   0.32205   0.186353  
         N         N         0.07007   0.10280   0.33946   -0.284556           
         C         C         0.18058   0.25871   0.46688   0.031544  
         C         C         0.16061   0.25998   0.60537   -0.117953           
         C         C         0.14138   0.29125   0.64719   -0.132777           
         C         C         0.14093   0.32188   0.55047   0.052309  
         C         C         0.16135   0.32081   0.41270   -0.107854           
         C         C         0.18113   0.28960   0.37202   -0.133834           
         C         C         0.23619   0.26568   0.88057   -0.508948           
         C         C         0.11794   0.35253   0.59768   0.070561  
         N         N         0.11130   0.38079   0.51400   -0.289124           
         C         C         0.08591   0.40579   0.57583   0.197035  
         C         C         0.32299   0.27173   0.37770   0.042659  
         C         C         0.34725   0.26942   0.25253   -0.124116           
         C         C         0.37290   0.29653   0.23146   -0.136361           
         C         C         0.37526   0.32659   0.33625   0.044151  
         C         C         0.35081   0.32903   0.46062   -0.103618           
         C         C         0.32487   0.30204   0.48060   -0.144186           
         C         C         0.29721   0.23938   0.39707   0.209135  
         C         C         0.40218   0.35479   0.31051   0.072267  
         C         C         0.43279   0.40848   0.36726   0.200491  
         N         N         0.40712   0.38212   0.40635   -0.295027           
         C         C         0.31985   0.20765   0.46020   0.027634  
         C         C         0.31848   0.17292   0.38771   -0.130754           
         C         C         0.34087   0.14471   0.43877   -0.113556           
         C         C         0.36509   0.15050   0.56549   0.051450  
         C         C         0.36594   0.18517   0.63957   -0.136291           
         C         C         0.34396   0.21343   0.58674   -0.121836           
         C         C         0.39030   0.12248   0.61958   0.064940  
         N         N         0.39481   0.09145   0.54768   -0.290517           
         C         C         0.42158   0.06768   0.60567   0.192607  
         O         O         0.22722   0.21853   0.68224   -0.309576           
         O         O         0.28351   0.22955   0.24415   -0.534812           
         O         O         0.27613   0.25714   0.66106   -0.304382           
         O         O         0.21077   0.22585   0.25824   -0.497141           
         C         C         0.01437   0.07747   0.24045   -0.152738           
         C         C         0.99196   0.04797   0.20176   -0.144513           
         C         C         0.00193   0.01239   0.24186   0.123658  
         C         C         0.03419   0.00735   0.32824   -0.129807           
         C         C         0.05663   0.03664   0.36787   -0.174099           
         C         C         0.46591   0.40026   0.29431   -0.189513           
         C         C         0.48796   0.42839   0.24336   -0.140639           
         C         C         0.47783   0.46505   0.26395   0.110403  
         C         C         0.44587   0.47306   0.34520   -0.134345           
         C         C         0.42392   0.44526   0.39853   -0.167348           
         C         C         0.45464   0.07978   0.67308   -0.185757           
         C         C         0.47874   0.05480   0.73838   -0.145360           
         C         C         0.47111   0.01733   0.73712   0.114270  
         C         C         0.43950   0.00515   0.65941   -0.132992           
         C         C         0.41520   0.02986   0.59364   -0.157811           
         C         C         0.05372   0.39432   0.64660   -0.188689           
         C         C         0.03102   0.41980   0.71910   -0.145151           
         C         C         0.03936   0.45710   0.72254   0.113474  
         C         C         0.07013   0.46858   0.64248   -0.132109           
         C         C         0.09298   0.44340   0.56884   -0.165700           
         C         C         0.01721   0.48291   0.82368   -0.249506           
         C         C         0.49868   0.49500   0.18715   -0.248966           
         C         C         0.95338   0.99703   0.74879   -0.147470           
         H         H         0.29143   0.74086   0.46306   0.052772  
         H         H         0.20952   0.74883   0.46839   0.055289  
         H         H         0.21472   0.74927   0.94970   0.153281  
         H         H         0.21057   0.78393   0.80611   0.146409  
         H         H         0.24687   0.78560   0.94722   0.158806  
         H         H         0.25937   0.83395   0.66292   0.118993  
         H         H         0.20956   0.87606   0.73857   0.108142  
         H         H         0.15210   0.84869   0.31093   0.115379  
         H         H         0.20176   0.80612   0.23616   0.108378  
         H         H         0.15357   0.90434   0.69236   0.065472  
         H         H         0.33099   0.78123   0.56786   0.116403  
         H         H         0.38488   0.82100   0.56971   0.105289  
         H         H         0.33194   0.89280   0.24691   0.113536  
         H         H         0.27735   0.85265   0.24433   0.114251  
         H         H         0.29715   0.70510   0.76862   0.147294  
         H         H         0.26445   0.69989   0.91814   0.148630  
         H         H         0.29660   0.73638   0.93246   0.153471  
         H         H         0.41640   0.87449   0.49049   0.066316  
         H         H         0.29849   0.68288   0.23225   0.102038  
         H         H         0.34716   0.63995   0.30161   0.118110  
         H         H         0.28946   0.61048   0.71369   0.109206  
         H         H         0.24000   0.65338   0.64455   0.122051  
         H         H         0.34645   0.58433   0.67405   0.065573  
         H         H         0.21956   0.63659   0.23382   0.112546  
         H         H         0.16480   0.59676   0.23751   0.112859  
         H         H         0.11566   0.67079   0.56923   0.105246  
         H         H         0.16992   0.71004   0.56733   0.120054  
         H         H         0.08286   0.61589   0.48795   0.068669  
         H         H         0.26131   0.71708   0.21837   0.332755  
         H         H         0.24017   0.76427   0.22780   0.327696  
         H         H         0.13663   0.96330   0.63886   0.111903  
         H         H         0.09189   0.00265   0.77683   0.106327  
         H         H         0.00537   0.93333   0.60845   0.108761  
         H         H         0.05023   0.89352   0.47267   0.115902  
         H         H         0.36435   0.52561   0.62304   0.111331  
         H         H         0.41009   0.48832   0.76363   0.109998  
         H         H         0.49520   0.55691   0.59900   0.111871  
         H         H         0.44934   0.59472   0.45987   0.117177  
         H         H         0.03143   0.59313   0.37756   0.110714  
         H         H         0.98132   0.54996   0.32530   0.107830  
         H         H         0.10872   0.50898   0.26263   0.116599  
         H         H         0.46649   0.89649   0.41550   0.105215  
         H         H         0.51837   0.93636   0.36859   0.106812  
         H         H         0.44672   0.01811   0.18342   0.111419  
         H         H         0.39382   0.97788   0.23384   0.116530  
         H         H         0.50718   0.02092   0.12601   0.104052  
         H         H         0.53495   0.98218   0.13892   0.110635  
         H         H         0.03596   0.00861   0.89382   0.109075  
         H         H         0.00857   0.96965   0.89290   0.101056  
         H         H         0.24801   0.19178   0.48484   0.055696  
         H         H         0.25121   0.27361   0.45596   0.062011  
         H         H         0.29107   0.19157   0.77817   0.145482  
         H         H         0.26134   0.19549   0.94124   0.144738  
         H         H         0.29925   0.22488   0.93030   0.157320  
         H         H         0.20337   0.16048   0.60819   0.122490  
         H         H         0.15884   0.11019   0.61059   0.108199  
         H         H         0.09297   0.16444   0.26771   0.115310  
         H         H         0.13750   0.21573   0.26641   0.115147  
         H         H         0.10237   0.08197   0.52234   0.069161  
         H         H         0.15979   0.23609   0.67833   0.116973  
         H         H         0.12560   0.29201   0.75405   0.108404  
         H         H         0.16111   0.34454   0.33814   0.117600  
         H         H         0.19637   0.28868   0.26401   0.120875  
         H         H         0.21998   0.25187   0.96822   0.144389  
         H         H         0.21845   0.28347   0.81186   0.144505  
         H         H         0.25683   0.28225   0.94232   0.156633  
         H         H         0.10555   0.34985   0.71341   0.063207  
         H         H         0.34574   0.24607   0.17219   0.122765  
         H         H         0.39161   0.29454   0.13413   0.105463  
         H         H         0.35254   0.35255   0.54010   0.112333  
         H         H         0.30636   0.30433   0.57805   0.117955  
         H         H         0.41739   0.35219   0.20083   0.065100  
         H         H         0.30045   0.16888   0.28719   0.109014  
         H         H         0.34040   0.11805   0.38039   0.113796  
         H         H         0.38482   0.19002   0.73697   0.105565  
         H         H         0.34583   0.24033   0.64206   0.114657  
         H         H         0.40567   0.12966   0.72728   0.064102  
         H         H         0.25698   0.23288   0.24155   0.321373  
         H         H         0.20803   0.20145   0.21285   0.363753  
         H         H         0.00742   0.10493   0.20441   0.114808  
         H         H         0.96717   0.05236   0.13380   0.113767  
         H         H         0.04231   0.97993   0.36074   0.103545  
         H         H         0.08223   0.03138   0.42817   0.104402  
         H         H         0.47385   0.37190   0.27588   0.106976  
         H         H         0.51296   0.42188   0.18231   0.109360  
         H         H         0.43780   0.50137   0.36454   0.104272  
         H         H         0.39886   0.45138   0.45941   0.115044  
         H         H         0.46136   0.10867   0.67321   0.108087  
         H         H         0.50403   0.06439   0.79193   0.106230  
         H         H         0.43377   0.97605   0.65181   0.110704  
         H         H         0.39033   0.02042   0.53637   0.117195  
         H         H         0.04686   0.36546   0.64512   0.110098  
         H         H         0.00659   0.41063   0.77655   0.105600  
         H         H         0.07664   0.49752   0.64018   0.111409  
         H         H         0.11750   0.45223   0.51155   0.120416  
         H         H         0.03528   0.49505   0.91422   0.108164  
         H         H         0.99772   0.46624   0.88644   0.098776  
         H         H         0.47871   0.51247   0.12846   0.101714  
         H         H         0.51499   0.48244   0.09332   0.101726  
         H         H         0.94944   0.96886   0.78291   0.109026  
         C         C         0.73441   0.25799   0.48938   0.038152  
         C         C         0.76869   0.23353   0.49312   0.051721  
         C         C         0.75206   0.24478   0.23029   0.536929  
         C         C         0.77766   0.26816   0.13627   -0.517788           
         C         C         0.76783   0.31748   0.55531   0.030844  
         C         C         0.76653   0.33817   0.41892   -0.123174           
         C         C         0.79503   0.36126   0.38355   -0.133201           
         C         C         0.82542   0.36478   0.48419   0.050696  
         C         C         0.82675   0.34388   0.62043   -0.108572           
         C         C         0.79836   0.32043   0.65502   -0.132134           
         C         C         0.73567   0.29337   0.59331   0.206794  
         C         C         0.85412   0.38996   0.44140   0.068667  
         C         C         0.90754   0.42182   0.46709   0.199957  
         N         N         0.88237   0.39717   0.52775   -0.292417           
         C         C         0.70037   0.31516   0.58548   0.001279  
         C         C         0.66785   0.30111   0.52290   -0.129590           
         C         C         0.63590   0.32166   0.53074   -0.133523           
         C         C         0.63578   0.35681   0.59959   0.060729  
         C         C         0.66862   0.37095   0.66127   -0.108404           
         C         C         0.70020   0.35044   0.65450   -0.130152           
         C         C         0.72728   0.22085   0.12752   -0.514246           
         C         C         0.60227   0.37825   0.60936   0.059106  
         N         N         0.60338   0.41174   0.65915   -0.289095           
         C         C         0.57228   0.43347   0.67748   0.185574  
         C         C         0.73315   0.17601   0.55595   0.024556  
         C         C         0.70288   0.17481   0.65379   -0.138698           
         C         C         0.67358   0.15204   0.61747   -0.111563           
         C         C         0.67375   0.12996   0.48090   0.048637  
         C         C         0.70374   0.13183   0.38128   -0.131496           
         C         C         0.73320   0.15415   0.41904   -0.122289           
         C         C         0.76643   0.19936   0.59944   0.204075  
         C         C         0.64479   0.10436   0.43895   0.068328  
         C         C         0.59325   0.07058   0.46806   0.196696  
         N         N         0.61738   0.09747   0.52631   -0.292639           
         C         C         0.80055   0.17549   0.58788   0.052007  
         C         C         0.80073   0.14228   0.66825   -0.119395           
         C         C         0.83091   0.11957   0.66682   -0.109731           
         C         C         0.86209   0.12925   0.58363   0.049413  
         C         C         0.86190   0.16235   0.50371   -0.133233           
         C         C         0.83153   0.18525   0.50608   -0.133475           
         C         C         0.89444   0.10609   0.58223   0.068619  
         N         N         0.89561   0.07597   0.65800   -0.294592           
         C         C         0.92751   0.05534   0.67250   0.193412  
         O         O         0.73053   0.26840   0.33014   -0.314775           
         O         O         0.76558   0.21146   0.76070   -0.526763           
         O         O         0.77270   0.22190   0.33338   -0.304313           
         O         O         0.73996   0.28133   0.75548   -0.498493           
         C         C         0.89717   0.45349   0.38712   -0.187623           
         C         C         0.92298   0.47364   0.30828   -0.148338           
         C         C         0.95957   0.46323   0.30863   0.116866  
         C         C         0.97027   0.43379   0.40125   -0.134762           
         C         C         0.94476   0.41359   0.48119   -0.168241           
         C         C         0.60534   0.03808   0.39472   -0.188082           
         C         C         0.58057   0.01457   0.32057   -0.140131           
         C         C         0.54337   0.02245   0.31821   0.112706  
         C         C         0.53118   0.05324   0.40276   -0.137491           
         C         C         0.55566   0.07677   0.47859   -0.169486           
         C         C         0.96303   0.06940   0.66372   -0.174752           
         C         C         0.99288   0.04773   0.70145   -0.133970           
         C         C         0.98854   0.01153   0.74866   0.110852  
         C         C         0.92335   0.01857   0.71288   -0.156343           
         C         C         0.53715   0.42575   0.61806   -0.173776           
         C         C         0.50815   0.44875   0.65392   -0.126521           
         C         C         0.51311   0.48005   0.74978   0.123459  
         C         C         0.54831   0.48850   0.80276   -0.145794           
         C         C         0.57748   0.46583   0.76641   -0.146806           
         C         C         0.48160   0.50256   0.80982   -0.250310           
         C         C         0.98586   0.48039   0.19776   -0.247920           
         C         C         0.76384   0.71887   0.46729   0.041047  
         C         C         0.73509   0.74943   0.48652   0.044632  
         C         C         0.74387   0.73596   0.21677   0.532909  
         C         C         0.72056   0.70736   0.13154   -0.517214           
         C         C         0.82563   0.69209   0.54618   0.003959  
         C         C         0.81761   0.66024   0.45927   -0.130521           
         C         C         0.84192   0.63088   0.45892   -0.132374           
         C         C         0.87473   0.63271   0.54422   0.058100  
         C         C         0.88302   0.66514   0.62881   -0.104821           
         C         C         0.85895   0.69425   0.62900   -0.135631           
         C         C         0.79987   0.72458   0.56246   0.204443  
         C         C         0.89905   0.60112   0.54920   0.059028  
         C         C         0.95095   0.57174   0.65212   0.186785  
         N         N         0.92913   0.60259   0.62833   -0.286400           
         C         C         0.81925   0.75957   0.51959   0.027780  
         C         C         0.83992   0.75960   0.38304   -0.121872           
         C         C         0.85986   0.79023   0.34506   -0.131015           
         C         C         0.85967   0.82170   0.44231   0.050837  
         C         C         0.83802   0.82208   0.57653   -0.106444           
         C         C         0.81812   0.79128   0.61484   -0.132210           
         C         C         0.76075   0.76343   0.10817   -0.508801           
         C         C         0.88313   0.85196   0.40103   0.068490  
         N         N         0.88667   0.88185   0.48262   -0.286053           
         C         C         0.91258   0.90668   0.42929   0.197692  
         C         C         0.67713   0.77288   0.61958   0.039548  
         C         C         0.65328   0.77191   0.74617   -0.123436           
         C         C         0.62725   0.79906   0.76721   -0.134660           
         C         C         0.62396   0.82776   0.66077   0.048047  
         C         C         0.64822   0.82901   0.53580   -0.104765           
         C         C         0.67459   0.80209   0.51617   -0.142981           
         C         C         0.70303   0.74033   0.59713   0.209040  
         C         C         0.59623   0.85570   0.68499   0.070188  
         C         C         0.56391   0.90793   0.62999   0.198161  
         N         N         0.59077   0.88223   0.58993   -0.295163           
         C         C         0.68013   0.70808   0.53540   0.029266  
         C         C         0.68143   0.67450   0.61160   -0.132723           
         C         C         0.65863   0.64589   0.56555   -0.113585           
         C         C         0.63422   0.65009   0.43935   0.049063  
         C         C         0.63371   0.68338   0.35986   -0.133467           
         C         C         0.65593   0.71218   0.40866   -0.119510           
         C         C         0.60849   0.62182   0.39056   0.068980  
         N         N         0.60190   0.59319   0.47134   -0.294710           
         C         C         0.57432   0.56978   0.41483   0.197035  
         O         O         0.77253   0.71852   0.30491   -0.312203           
         O         O         0.71764   0.73164   0.74833   -0.536444           
         O         O         0.72204   0.75537   0.33060   -0.303491           
         O         O         0.79006   0.72758   0.72876   -0.494398           
         C         C         0.98658   0.57820   0.70711   -0.151307           
         C         C         0.00879   0.54944   0.75342   -0.143867           
         C         C         0.99609   0.51340   0.74762   0.125693  
         C         C         0.96123   0.50676   0.68501   -0.132758           
         C         C         0.93884   0.53531   0.63862   -0.175136           
         C         C         0.53091   0.89861   0.69971   -0.188817           
         C         C         0.50783   0.92593   0.75607   -0.142113           
         C         C         0.51678   0.96287   0.74383   0.116184  
         C         C         0.54831   0.97203   0.66348   -0.135911           
         C         C         0.57137   0.94499   0.60534   -0.166309           
         C         C         0.54306   0.58253   0.33625   -0.186011           
         C         C         0.51822   0.55785   0.27119   -0.147158           
         C         C         0.52324   0.52005   0.28309   0.111513  
         C         C         0.55289   0.50754   0.37192   -0.132452           
         C         C         0.57793   0.53202   0.43800   -0.163818           
         C         C         0.94669   0.89506   0.37497   -0.191900           
         C         C         0.96959   0.91966   0.30350   -0.144844           
         C         C         0.95956   0.95628   0.28530   0.110858  
         C         C         0.92732   0.96850   0.35460   -0.131756           
         C         C         0.90418   0.94415   0.42690   -0.163788           
         C         C         0.98124   0.97973   0.17705   -0.249063           
         C         C         0.49520   0.99193   0.82937   -0.249445           
         C         C         0.05220   0.49319   0.24887   -0.146842           
         H         H         0.71079   0.24189   0.52461   0.050499  
         H         H         0.79255   0.24947   0.53219   0.057567  
         H         H         0.79394   0.25063   0.05851   0.161770  
         H         H         0.79546   0.28385   0.21621   0.144588  
         H         H         0.76218   0.28732   0.06419   0.143807  
         H         H         0.74292   0.33623   0.34176   0.121695  
         H         H         0.79372   0.37733   0.27780   0.107414  
         H         H         0.85030   0.34654   0.69793   0.115834  
         H         H         0.79942   0.30464   0.76136   0.119577  
         H         H         0.85057   0.40232   0.32566   0.065164  
         H         H         0.66724   0.27427   0.46657   0.122156  
         H         H         0.61084   0.31035   0.48169   0.109554  
         H         H         0.66834   0.39821   0.71412   0.116262  
         H         H         0.72541   0.36159   0.70255   0.114294  
         H         H         0.70967   0.20441   0.20043   0.145547  
         H         H         0.74345   0.20285   0.05133   0.163763  
         H         H         0.71024   0.23818   0.05323   0.137536  
         H         H         0.57702   0.36398   0.57595   0.070153  
         H         H         0.70313   0.19115   0.76153   0.105881  
         H         H         0.65035   0.15056   0.69419   0.113505  
         H         H         0.70416   0.11489   0.27504   0.108576  
         H         H         0.75673   0.15442   0.34392   0.117838  
         H         H         0.64748   0.09075   0.32358   0.064392  
         H         H         0.77664   0.13435   0.73125   0.119636  
         H         H         0.83119   0.09389   0.72851   0.112161  
         H         H         0.88576   0.17026   0.43891   0.103912  
         H         H         0.83202   0.21038   0.44106   0.112989  
         H         H         0.91746   0.11614   0.51466   0.066410  
         H         H         0.75495   0.23619   0.76639   0.320413  
         H         H         0.71663   0.28518   0.80502   0.358039  
         H         H         0.86875   0.46155   0.38415   0.109594  
         H         H         0.91449   0.49716   0.24084   0.107669  
         H         H         0.99881   0.42615   0.40787   0.109933  
         H         H         0.95289   0.38984   0.54752   0.116408  
         H         H         0.63420   0.03184   0.39408   0.113250  
         H         H         0.59031   0.99015   0.25948   0.108552  
         H         H         0.50227   0.05934   0.40607   0.109732  
         H         H         0.54630   0.10140   0.53881   0.115455  
         H         H         0.96710   0.09788   0.63514   0.108673  
         H         H         0.01998   0.05942   0.69995   0.106202  
         H         H         0.89598   0.00778   0.71979   0.116834  
         H         H         0.53230   0.40184   0.54315   0.106571  
         H         H         0.48123   0.44226   0.60755   0.106942  
         H         H         0.55270   0.51289   0.87543   0.112068  
         H         H         0.60477   0.47203   0.80886   0.116565  
         H         H         0.49296   0.52408   0.88731   0.105717  
         H         H         0.46554   0.48507   0.88573   0.112043  
         H         H         0.97010   0.49595   0.11143   0.109062  
         H         H         0.99872   0.45791   0.13182   0.103978  
         H         H         0.75211   0.69252   0.50037   0.053982  
         H         H         0.74787   0.77468   0.53251   0.063257  
         H         H         0.70976   0.68805   0.21519   0.143088  
         H         H         0.73657   0.69257   0.04333   0.145143  
         H         H         0.69785   0.72061   0.07054   0.158194  
         H         H         0.79273   0.65834   0.38998   0.123427  
         H         H         0.83517   0.60600   0.39312   0.107872  
         H         H         0.90853   0.66646   0.69410   0.116148  
         H         H         0.86561   0.71936   0.69327   0.116261  
         H         H         0.88970   0.57643   0.48520   0.067692  
         H         H         0.84076   0.73519   0.30887   0.118532  
         H         H         0.87648   0.78966   0.24066   0.107143  
         H         H         0.83765   0.84664   0.65034   0.118974  
         H         H         0.80231   0.79136   0.72131   0.121400  
         H         H         0.77868   0.74965   0.02419   0.145066  
         H         H         0.77661   0.78345   0.17711   0.147678  
         H         H         0.73929   0.77738   0.04188   0.158670  
         H         H         0.89841   0.84754   0.29236   0.063586  
         H         H         0.65526   0.74946   0.82709   0.120673  
         H         H         0.60887   0.79805   0.86573   0.105289  
         H         H         0.64579   0.85142   0.45476   0.113627  
         H         H         0.69279   0.80346   0.41771   0.116846  
         H         H         0.58055   0.85358   0.79313   0.064473  
         H         H         0.69988   0.67182   0.71089   0.108181  
         H         H         0.65906   0.62009   0.62640   0.112505  
         H         H         0.61498   0.68685   0.26151   0.105237  
         H         H         0.65435   0.73817   0.35006   0.114342  
         H         H         0.59433   0.62658   0.27852   0.063953  
         H         H         0.74437   0.73234   0.74650   0.321612  
         H         H         0.79686   0.70445   0.77499   0.362561  
         H         H         0.99569   0.60635   0.71779   0.113124  
         H         H         0.03580   0.55506   0.80106   0.112999  
         H         H         0.95113   0.47887   0.67721   0.105958  
         H         H         0.91128   0.52934   0.59923   0.104237  
         H         H         0.52412   0.86998   0.71293   0.106997  
         H         H         0.48306   0.91854   0.81564   0.109338  
         H         H         0.55526   0.00064   0.64958   0.107543  
         H         H         0.59641   0.95211   0.54770   0.116369  
         H         H         0.53845   0.61173   0.32641   0.108644  
         H         H         0.49440   0.56793   0.20874   0.104290  
         H         H         0.55668   0.47840   0.38833   0.106700  
         H         H         0.60132   0.52225   0.50399   0.117392  
         H         H         0.95469   0.86666   0.38729   0.111381  
         H         H         0.99543   0.91023   0.25724   0.104861  
         H         H         0.91982   0.99719   0.34848   0.117534  
         H         H         0.87846   0.95337   0.47445   0.121769  
         H         H         0.96297   0.98900   0.08281   0.106771  
         H         H         0.00110   0.96153   0.12050   0.103167  
         H         H         0.51478   0.00894   0.89529   0.100423  
         H         H         0.47853   0.97857   0.91745   0.106884  
         H         H         0.05805   0.46523   0.21154   0.110296 

