
##########################################################################
#               Crystallographic Information Format file
#               Produced by PyCifRW module
#
#  This is a CIF file.  CIF has been adopted by the International
#  Union of Crystallography as the standard for data archiving and
#  transmission.
#
#  For information on this file format, follow the CIF links at
#  http://www.iucr.org
##########################################################################

data_image0

_cell_length_a                          26.5042
_cell_length_b                          26.2453
_cell_length_c                          26.3838
_cell_angle_alpha                       90.6474
_cell_angle_beta                        89.7256
_cell_angle_gamma                       89.8774
_symmetry_space_group_name_H-M          'P 1'
_space_group_name_Hall                  'P 1'
loop_
  _atom_site_type_symbol
  _atom_site_label
  _atom_site_fract_x
  _atom_site_fract_y
  _atom_site_fract_z
  _atom_site_charge
         B         B         0.19026   0.81927   0.75115   0.720213  
         C         C         0.93835   0.41656   0.89571   0.059156  
         O         O         0.83321   0.22464   0.76782   -0.567609           
         N         N         0.06048   0.06962   0.43418   -0.297335           
         C         C         0.03523   0.03436   0.46864   0.270913  
         H         H         0.02865   0.52625   0.09067   0.107286  
         H         H         0.02444   0.40757   0.97681   0.113747  
         H         H         0.91123   0.52614   0.97769   0.112902  
         C         C         0.82813   0.15118   0.70436   -0.250664           
         C         C         0.80521   0.10569   0.68767   -0.051676           
         C         C         0.82633   0.07693   0.64813   -0.151472           
         C         C         0.87153   0.09243   0.62491   0.074412  
         C         C         0.87287   0.16698   0.67987   -0.053445           
         C         C         0.89444   0.13815   0.64094   -0.127183           
         H         H         0.96846   0.43086   0.87081   0.065824  
         H         H         0.77098   0.09267   0.70640   0.108668  
         H         H         0.80854   0.04159   0.63570   0.105108  
         H         H         0.89078   0.20220   0.69235   0.108414  
         H         H         0.92931   0.14966   0.62243   0.114455  
         B         B         0.80703   0.18202   0.75016   0.716961  
         C         C         0.06041   0.58401   0.89244   0.059160  
         O         O         0.16653   0.77428   0.76513   -0.568504           
         N         N         0.94110   0.93076   0.43307   -0.297386           
         C         C         0.96814   0.96557   0.46740   0.272971  
         H         H         0.97951   0.48037   0.09277   0.099144  
         H         H         0.97837   0.59272   0.97508   0.112381  
         H         H         0.09207   0.47468   0.97395   0.111429  
         C         C         0.16853   0.85145   0.70754   -0.249853           
         C         C         0.18528   0.90166   0.69997   -0.053528           
         C         C         0.16314   0.93223   0.66331   -0.146417           
         C         C         0.12411   0.91302   0.63273   0.069305  
         C         C         0.12939   0.83247   0.67652   -0.053236           
         C         C         0.10764   0.86253   0.63952   -0.121289           
         H         H         0.02780   0.57160   0.86983   0.065689  
         H         H         0.21532   0.91671   0.72376   0.109519  
         H         H         0.17553   0.97143   0.65851   0.104473  
         H         H         0.11601   0.79375   0.68228   0.108146  
         H         H         0.07717   0.84841   0.61576   0.111965  
         B         B         0.80966   0.82149   0.24945   0.719473  
         C         C         0.05583   0.40936   0.09948   0.063001  
         O         O         0.16161   0.22199   0.23216   -0.567890           
         N         N         0.94151   0.06666   0.57293   -0.293834           
         C         C         0.96738   0.03264   0.53708   0.269903  
         H         H         0.97631   0.52213   0.90696   0.101895  
         H         H         0.97743   0.40975   0.02465   0.108460  
         H         H         0.09407   0.52435   0.01972   0.112963  
         C         C         0.16620   0.14766   0.29351   -0.250434           
         C         C         0.18856   0.10131   0.30791   -0.052614           
         C         C         0.16845   0.07296   0.34757   -0.148000           
         C         C         0.12523   0.09004   0.37383   0.070498  
         C         C         0.12316   0.16476   0.32063   -0.054114           
         C         C         0.10288   0.13658   0.36003   -0.122870           
         H         H         0.01790   0.41415   0.11617   0.065159  
         H         H         0.22161   0.08735   0.28737   0.108804  
         H         H         0.18558   0.03688   0.35816   0.105535  
         H         H         0.10557   0.20054   0.30981   0.108937  
         H         H         0.06942   0.14922   0.38067   0.111898  
         B         B         0.18684   0.17831   0.24800   0.717397  
         C         C         0.94011   0.58373   0.10682   0.056488  
         O         O         0.83341   0.77603   0.23515   -0.568546           
         N         N         0.06386   0.93002   0.56746   -0.297956           
         C         C         0.03620   0.96533   0.53482   0.274300  
         H         H         0.02489   0.47523   0.90667   0.103555  
         H         H         0.02725   0.59374   0.02073   0.114803  
         H         H         0.91102   0.47859   0.02462   0.112744  
         C         C         0.83181   0.85416   0.29346   -0.248282           
         C         C         0.81747   0.90537   0.30147   -0.052110           
         C         C         0.84024   0.93503   0.33916   -0.148823           
         C         C         0.87788   0.91420   0.37013   0.070028  
         C         C         0.86920   0.83359   0.32534   -0.051565           
         C         C         0.89178   0.86276   0.36316   -0.120252           
         H         H         0.96839   0.56657   0.13189   0.067975  
         H         H         0.78883   0.92216   0.27737   0.107872  
         H         H         0.82958   0.97489   0.34447   0.104736  
         H         H         0.88053   0.79405   0.31967   0.104688  
         H         H         0.92078   0.84707   0.38758   0.112301  
         B         B         0.74716   0.19204   0.81896   0.718627  
         C         C         0.90300   0.94679   0.40799   0.064426  
         O         O         0.76779   0.83815   0.22250   -0.568039           
         N         N         0.43076   0.05887   0.06696   -0.294920           
         C         C         0.46640   0.03323   0.03262   0.270715  
         H         H         0.09389   0.02446   0.52473   0.103211  
         H         H         0.97754   0.02526   0.41134   0.106851  
         H         H         0.98000   0.90685   0.52340   0.111484  
         C         C         0.70838   0.83316   0.14668   -0.250690           
         C         C         0.69711   0.81263   0.09848   -0.051719           
         C         C         0.65834   0.83298   0.06930   -0.148473           
         C         C         0.62970   0.87452   0.08757   0.071537  
         C         C         0.67902   0.87460   0.16473   -0.054425           
         C         C         0.64022   0.89487   0.13598   -0.125074           
         H         H         0.88777   0.98575   0.41200   0.064738  
         H         H         0.71931   0.78073   0.08380   0.108313  
         H         H         0.65038   0.81722   0.03179   0.104235  
         H         H         0.68728   0.89075   0.20195   0.108969  
         H         H         0.61746   0.92677   0.14969   0.114254  
         B         B         0.75233   0.81201   0.17898   0.720227  
         C         C         0.89536   0.05973   0.58589   0.056916  
         O         O         0.76322   0.16680   0.77504   -0.567874           
         N         N         0.43407   0.93710   0.92993   -0.295247           
         C         C         0.46822   0.96379   0.96473   0.270403  
         H         H         0.09364   0.97560   0.47748   0.104836  
         H         H         0.97912   0.97401   0.59366   0.113489  
         H         H         0.97719   0.09118   0.48002   0.111011  
         C         C         0.70204   0.17095   0.84961   -0.252242           
         C         C         0.68716   0.19376   0.89586   -0.050891           
         C         C         0.64828   0.17302   0.92479   -0.148780           
         C         C         0.62376   0.12839   0.90851   0.072728  
         C         C         0.67618   0.12688   0.83295   -0.051374           
         C         C         0.63782   0.10576   0.86191   -0.127106           
         H         H         0.87161   0.02905   0.57030   0.066989  
         H         H         0.70681   0.22766   0.90921   0.108087  
         H         H         0.63731   0.19053   0.96081   0.103851  
         H         H         0.68701   0.10918   0.79700   0.108049  
         H         H         0.61829   0.07126   0.85003   0.113679  
         B         B         0.24847   0.81034   0.82079   0.719073  
         C         C         0.10285   0.05796   0.41338   0.062114  
         O         O         0.22977   0.16185   0.22187   -0.566924           
         N         N         0.56963   0.93970   0.06767   -0.297450           
         C         C         0.53507   0.96534   0.03298   0.274625  
         H         H         0.91095   0.97267   0.52563   0.104898  
         H         H         0.02476   0.97748   0.40892   0.110321  
         H         H         0.02352   0.09156   0.52808   0.113756  
         C         C         0.29192   0.16671   0.14772   -0.250927           
         C         C         0.30773   0.19013   0.10257   -0.052119           
         C         C         0.34776   0.17015   0.07404   -0.149195           
         C         C         0.37281   0.12572   0.08962   0.072550  
         C         C         0.31812   0.12277   0.16351   -0.050154           
         C         C         0.35776   0.10248   0.13510   -0.122878           
         H         H         0.12394   0.02298   0.42212   0.065436  
         H         H         0.28798   0.22398   0.08972   0.108622  
         H         H         0.35928   0.18843   0.03898   0.104530  
         H         H         0.30640   0.10443   0.19843   0.104682  
         H         H         0.37763   0.06828   0.14679   0.111933  
         B         B         0.24600   0.18716   0.17853   0.717128  
         C         C         0.09967   0.94641   0.59576   0.064958  
         O         O         0.23230   0.83607   0.77790   -0.568740           
         N         N         0.56935   0.05967   0.93133   -0.295617           
         C         C         0.53475   0.03344   0.96551   0.273467  
         H         H         0.90876   0.02272   0.48087   0.099636  
         H         H         0.02520   0.02291   0.59413   0.108577  
         H         H         0.02638   0.90850   0.47522   0.111977  
         C         C         0.29396   0.83072   0.85167   -0.251037           
         C         C         0.30809   0.80857   0.89787   -0.052276           
         C         C         0.34774   0.82864   0.92635   -0.148083           
         C         C         0.37435   0.87159   0.90944   0.070174  
         C         C         0.32163   0.87322   0.83459   -0.053636           
         C         C         0.36114   0.89335   0.86278   -0.123747           
         H         H         0.11338   0.98604   0.59543   0.065657  
         H         H         0.28724   0.77577   0.91165   0.108098  
         H         H         0.35790   0.81155   0.96232   0.104653  
         H         H         0.31124   0.89049   0.79880   0.108674  
         H         H         0.38223   0.92638   0.85007   0.113935  
         B         B         0.81857   0.74988   0.19160   0.719859  
         C         C         0.41358   0.89459   0.94171   0.061876  
         O         O         0.22256   0.76707   0.83602   -0.569031           
         N         N         0.07086   0.43343   0.06014   -0.297058           
         C         C         0.03613   0.46728   0.03315   0.273782  
         H         H         0.52209   0.09259   0.02375   0.102572  
         H         H         0.40989   0.97419   0.02232   0.111622  
         H         H         0.52691   0.97495   0.90788   0.113265  
         C         C         0.15119   0.70257   0.82814   -0.251786           
         C         C         0.10713   0.68555   0.80365   -0.050457           
         C         C         0.07844   0.64603   0.82380   -0.150476           
         C         C         0.09290   0.62285   0.86928   0.072029  
         C         C         0.16596   0.67809   0.87312   -0.054462           
         C         C         0.13739   0.63901   0.89349   -0.124366           
         H         H         0.42210   0.87396   0.97680   0.066168  
         H         H         0.09516   0.70407   0.76899   0.107840  
         H         H         0.04402   0.63352   0.80505   0.104452  
         H         H         0.20007   0.69086   0.89219   0.109216  
         H         H         0.14794   0.62060   0.92862   0.113821  
         B         B         0.18135   0.74897   0.80867   0.718655  
         C         C         0.59083   0.89734   0.05521   0.062533  
         O         O         0.77764   0.76780   0.16409   -0.569701           
         N         N         0.93233   0.43113   0.94195   -0.297192           
         C         C         0.96750   0.46650   0.96629   0.273221  
         H         H         0.47704   0.09116   0.97399   0.102052  
         H         H         0.59338   0.97656   0.97561   0.111537  
         H         H         0.47686   0.97676   0.09069   0.111796  
         C         C         0.84843   0.70290   0.17202   -0.253585           
         C         C         0.89099   0.68447   0.19777   -0.051091           
         C         C         0.91977   0.64457   0.17742   -0.150411           
         C         C         0.90725   0.62287   0.13016   0.074381  
         C         C         0.83522   0.67965   0.12543   -0.052865           
         C         C         0.86426   0.64055   0.10460   -0.126870           
         H         H         0.58285   0.87657   0.01963   0.065404  
         H         H         0.90159   0.70212   0.23371   0.108690  
         H         H         0.95280   0.63075   0.19748   0.105511  
         H         H         0.80198   0.69329   0.10561   0.108899  
         H         H         0.85493   0.62313   0.06827   0.113382  
         B         B         0.81672   0.25085   0.81099   0.717175  
         C         C         0.41261   0.10303   0.05733   0.060375  
         O         O         0.21973   0.23001   0.16241   -0.567902           
         N         N         0.06960   0.56804   0.93724   -0.293184           
         C         C         0.03547   0.53378   0.96389   0.270936  
         H         H         0.52578   0.90625   0.97408   0.103750  
         H         H         0.40957   0.02102   0.97438   0.112395  
         H         H         0.52434   0.02400   0.08997   0.111093  
         C         C         0.14643   0.29298   0.16805   -0.249891           
         C         C         0.09791   0.30480   0.18683   -0.051399           
         C         C         0.06901   0.34322   0.16503   -0.149419           
         C         C         0.08807   0.37133   0.12412   0.071596  
         C         C         0.16546   0.32213   0.12754   -0.051897           
         C         C         0.13716   0.36087   0.10611   -0.124978           
         H         H         0.42398   0.12566   0.02431   0.065541  
         H         H         0.08256   0.28288   0.21808   0.108105  
         H         H         0.03108   0.35119   0.17913   0.104481  
         H         H         0.20292   0.31340   0.11271   0.108023  
         H         H         0.15153   0.38319   0.07470   0.115038  
         B         B         0.17711   0.24727   0.18868   0.719500  
         C         C         0.58533   0.10478   0.94108   0.059900  
         O         O         0.77305   0.23502   0.83584   -0.567613           
         N         N         0.93573   0.57240   0.05965   -0.293171           
         C         C         0.96941   0.53634   0.03391   0.270252  
         H         H         0.47956   0.90581   0.02310   0.103221  
         H         H         0.59185   0.02404   0.02376   0.112054  
         H         H         0.47815   0.02093   0.90721   0.112414  
         C         C         0.84752   0.29643   0.83217   -0.250279           
         C         C         0.89319   0.31111   0.80916   -0.051291           
         C         C         0.92170   0.35123   0.82892   -0.150964           
         C         C         0.90576   0.37704   0.87325   0.074044  
         C         C         0.83145   0.32333   0.87606   -0.053625           
         C         C         0.86009   0.36275   0.89655   -0.124865           
         H         H         0.57312   0.12741   0.97436   0.066174  
         H         H         0.90633   0.29028   0.77572   0.105731  
         H         H         0.95707   0.36200   0.81074   0.107021  
         H         H         0.79612   0.31243   0.89406   0.108244  
         H         H         0.84821   0.38300   0.93085   0.112489  
         C         C         0.00129   0.00064   0.43477   -0.288191           
         C         C         0.00207   0.99864   0.56929   -0.292652           
         C         C         0.43420   0.99800   0.99850   -0.287676           
         C         C         0.56808   -0.00014  -0.00050  -0.289443           
         C         C         0.00137   0.43343   0.00036   -0.290992           
         C         C         0.00267   0.56854   0.99838   -0.288676           
         C         C         0.00083   0.06656   0.50358   -0.300991           
         C         C         0.00275   0.93258   0.50008   -0.309710           
         C         C         0.50059   -0.00018  0.06564   -0.301573           
         C         C         0.50203   0.99820   0.93227   -0.304358           
         C         C         0.06849   0.49997   0.99763   -0.303718           
         C         C         0.93568   0.50192   0.00073   -0.298468           
         C         C         0.06937   0.00008   0.50136   -0.317133           
         C         C         0.93426   0.99844   0.50283   -0.319644           
         C         C         0.49995   0.06723   -0.00101  -0.323662           
         C         C         0.50219   0.93067   0.99871   -0.322879           
         C         C         0.00343   0.50274   0.06717   -0.322362           
         C         C         0.00093   0.49929   0.93135   -0.326391 

