
##########################################################################
#               Crystallographic Information Format file
#               Produced by PyCifRW module
#
#  This is a CIF file.  CIF has been adopted by the International
#  Union of Crystallography as the standard for data archiving and
#  transmission.
#
#  For information on this file format, follow the CIF links at
#  http://www.iucr.org
##########################################################################

data_image0

_cell_length_a                          26.5507
_cell_length_b                          26.6594
_cell_length_c                          26.8444
_cell_angle_alpha                       90.8233
_cell_angle_beta                        90.0881
_cell_angle_gamma                       89.8262
_symmetry_space_group_name_H-M          'P 1'
_space_group_name_Hall                  'P 1'
loop_
  _atom_site_type_symbol
  _atom_site_label
  _atom_site_fract_x
  _atom_site_fract_y
  _atom_site_fract_z
  _atom_site_charge
         B         B         0.16640   0.84073   0.77228   0.724182  
         C         C         0.95179   0.40507   0.90198   0.068743  
         O         O         0.85334   0.20441   0.78799   -0.565136           
         N         N         0.06166   0.06963   0.43332   -0.282203           
         C         C         0.03723   0.03631   0.46853   0.273240  
         H         H         0.02543   0.52237   0.09157   0.104589  
         H         H         0.02509   0.40864   0.97635   0.111689  
         H         H         0.91195   0.52532   0.97578   0.118382  
         C         C         0.84593   0.13345   0.72433   -0.216516           
         C         C         0.81590   0.09934   0.69694   -0.073292           
         C         C         0.83490   0.07502   0.65466   -0.125177           
         C         C         0.88484   0.08232   0.63839   -0.036413           
         C         C         0.89599   0.14060   0.70909   -0.191445           
         C         C         0.91491   0.11427   0.66826   0.260358  
         H         H         0.98670   0.41332   0.88155   0.068709  
         H         H         0.77737   0.09240   0.70870   0.111131  
         H         H         0.81123   0.04922   0.63331   0.110561  
         H         H         0.92091   0.16577   0.72967   0.139675  
         F         F         0.96484   0.11887   0.65898   -0.143460           
         B         B         0.82704   0.16225   0.77129   0.726134  
         C         C         0.05518   0.59200   0.90392   0.074890  
         O         O         0.14094   0.79780   0.78712   -0.565894           
         N         N         0.94473   0.93612   0.42938   -0.286295           
         C         C         0.96930   0.96929   0.46621   0.270505  
         H         H         0.97592   0.47763   0.09032   0.104001  
         H         H         0.97972   0.59000   0.97701   0.111837  
         H         H         0.09374   0.47400   0.97891   0.117016  
         C         C         0.14720   0.87099   0.72710   -0.219140           
         C         C         0.17667   0.90903   0.70592   -0.072075           
         C         C         0.15972   0.93479   0.66435   -0.124473           
         C         C         0.11281   0.92403   0.64194   -0.032671           
         C         C         0.09954   0.86102   0.70628   -0.185263           
         C         C         0.08294   0.88759   0.66527   0.255626  
         H         H         0.02124   0.58129   0.88264   0.063244  
         H         H         0.21306   0.91805   0.72240   0.111270  
         H         H         0.18295   0.96396   0.64823   0.110851  
         H         H         0.07481   0.83307   0.72227   0.139730  
         F         F         0.03534   0.87868   0.64898   -0.142644           
         B         B         0.82815   0.83813   0.23136   0.725857  
         C         C         0.04826   0.40196   0.09406   0.075694  
         O         O         0.13963   0.19943   0.21196   -0.564899           
         N         N         0.94368   0.06854   0.57123   -0.283887           
         C         C         0.96824   0.03589   0.53415   0.273178  
         H         H         0.98008   0.52184   0.90792   0.104364  
         H         H         0.97648   0.40986   0.02133   0.111417  
         H         H         0.09306   0.52252   0.02450   0.118800  
         C         C         0.15051   0.13129   0.27627   -0.219914           
         C         C         0.18134   0.09577   0.30002   -0.071154           
         C         C         0.16550   0.07297   0.34362   -0.125531           
         C         C         0.11820   0.08384   0.36526   -0.034638           
         C         C         0.10330   0.14258   0.29730   -0.187554           
         C         C         0.08764   0.11868   0.34007   0.259737  
         H         H         0.01239   0.41085   0.11296   0.064407  
         H         H         0.21774   0.08621   0.28387   0.111135  
         H         H         0.18968   0.04564   0.36174   0.110500  
         H         H         0.07791   0.16923   0.27993   0.138565  
         F         F         0.04031   0.12892   0.35611   -0.143760           
         B         B         0.16644   0.15741   0.22765   0.723527  
         C         C         0.94954   0.59320   0.09751   0.069912  
         O         O         0.85137   0.79307   0.21756   -0.566733           
         N         N         0.06174   0.93536   0.56879   -0.285685           
         C         C         0.03678   0.96887   0.53338   0.271863  
         H         H         0.02820   0.47526   0.90919   0.103172  
         H         H         0.02684   0.58989   0.02359   0.113140  
         H         H         0.91053   0.47702   0.02020   0.116045  
         C         C         0.84841   0.86876   0.27661   -0.216301           
         C         C         0.82079   0.90772   0.29994   -0.074309           
         C         C         0.84123   0.93431   0.34015   -0.122583           
         C         C         0.88995   0.92404   0.35860   -0.036849           
         C         C         0.89756   0.85906   0.29363   -0.189012           
         C         C         0.91792   0.88704   0.33264   0.260269  
         H         H         0.98122   0.58066   0.12081   0.067161  
         H         H         0.78316   0.91679   0.28659   0.112469  
         H         H         0.81957   0.96400   0.35846   0.110133  
         H         H         0.92076   0.83037   0.27577   0.138831  
         F         F         0.96716   0.87875   0.34360   -0.144185           
         B         B         0.76928   0.17168   0.84030   0.726614  
         C         C         0.90933   0.95292   0.40164   0.077576  
         O         O         0.78824   0.85608   0.20308   -0.564626           
         N         N         0.42810   0.05597   0.06483   -0.285037           
         C         C         0.46580   0.03224   0.03246   0.272541  
         H         H         0.09564   0.02592   0.52424   0.104240  
         H         H         0.98057   0.02701   0.41093   0.110833  
         H         H         0.97972   0.91230   0.52273   0.116578  
         C         C         0.72924   0.85102   0.12860   -0.212978           
         C         C         0.70064   0.81951   0.09703   -0.075527           
         C         C         0.65915   0.83847   0.07166   -0.122965           
         C         C         0.64513   0.88948   0.07551   -0.035809           
         C         C         0.71700   0.90231   0.13133   -0.191015           
         C         C         0.67709   0.92110   0.10379   0.256614  
         H         H         0.89151   0.99000   0.40730   0.064603  
         H         H         0.71075   0.78007   0.09318   0.111972  
         H         H         0.63627   0.81374   0.04828   0.111115  
         H         H         0.73923   0.92805   0.15413   0.138427  
         F         F         0.67133   0.97188   0.10363   -0.144405           
         B         B         0.77392   0.83086   0.15959   0.728940  
         C         C         0.90379   0.05486   0.59421   0.070600  
         O         O         0.78520   0.14613   0.79754   -0.565158           
         N         N         0.42993   0.93767   0.93431   -0.284328           
         C         C         0.46688   0.96258   0.96655   0.272256  
         H         H         0.09485   0.97780   0.47770   0.105489  
         H         H         0.97929   0.97820   0.58974   0.113066  
         H         H         0.98010   0.09341   0.47829   0.117108  
         C         C         0.72353   0.15137   0.86964   -0.220325           
         C         C         0.69709   0.18106   0.90472   -0.070138           
         C         C         0.65511   0.16206   0.92900   -0.126605           
         C         C         0.63796   0.11268   0.92023   -0.033149           
         C         C         0.70771   0.10157   0.86142   -0.186095           
         C         C         0.66685   0.08268   0.88727   0.258154  
         H         H         0.88168   0.02144   0.58368   0.065688  
         H         H         0.70956   0.21921   0.91245   0.111257  
         H         H         0.63442   0.18543   0.95560   0.110560  
         H         H         0.72766   0.07700   0.83542   0.138758  
         F         F         0.65651   0.03304   0.88121   -0.144655           
         B         B         0.22737   0.82794   0.83768   0.728971  
         C         C         0.10109   0.05610   0.40902   0.069855  
         O         O         0.20689   0.13937   0.19967   -0.563249           
         N         N         0.57335   0.94379   0.06497   -0.288629           
         C         C         0.53472   0.96595   0.03265   0.274347  
         H         H         0.91056   0.97791   0.52161   0.105706  
         H         H         0.02717   0.97936   0.41056   0.110978  
         H         H         0.02516   0.09293   0.52683   0.117678  
         C         C         0.27041   0.14735   0.12924   -0.216083           
         C         C         0.29823   0.17945   0.09850   -0.074178           
         C         C         0.34149   0.16224   0.07435   -0.124349           
         C         C         0.35850   0.11230   0.07867   -0.037052           
         C         C         0.28622   0.09716   0.13313   -0.188168           
         C         C         0.32829   0.08018   0.10724   0.259874  
         H         H         0.12324   0.02212   0.41720   0.066041  
         H         H         0.28590   0.21809   0.09407   0.110523  
         H         H         0.36321   0.18755   0.05131   0.111026  
         H         H         0.26526   0.07075   0.15554   0.138007  
         F         F         0.33846   0.03029   0.10872   -0.144362           
         B         B         0.22322   0.16571   0.15829   0.726973  
         C         C         0.09544   0.95265   0.59867   0.075634  
         O         O         0.20932   0.85602   0.79807   -0.565600           
         N         N         0.56829   0.05637   0.93207   -0.285402           
         C         C         0.53229   0.03200   0.96530   0.276216  
         H         H         0.91061   0.02681   0.47720   0.103674  
         H         H         0.02533   0.02610   0.59082   0.110395  
         H         H         0.02585   0.91170   0.47541   0.118111  
         C         C         0.27500   0.84527   0.86645   -0.218037           
         C         C         0.30287   0.81298   0.89723   -0.073738           
         C         C         0.34562   0.83014   0.92227   -0.124632           
         C         C         0.36212   0.88026   0.91876   -0.036823           
         C         C         0.29035   0.89549   0.86324   -0.190985           
         C         C         0.33186   0.91239   0.88993   0.261933  
         H         H         0.11212   0.99034   0.59563   0.065794  
         H         H         0.29087   0.77426   0.90115   0.111520  
         H         H         0.36715   0.80460   0.94546   0.110198  
         H         H         0.26938   0.92213   0.84090   0.138964  
         F         F         0.34108   0.96235   0.88879   -0.144649           
         B         B         0.83933   0.76939   0.17268   0.730247  
         C         C         0.40688   0.89753   0.94662   0.071963  
         O         O         0.20202   0.78490   0.85157   -0.568256           
         N         N         0.06624   0.42784   0.05832   -0.287334           
         C         C         0.03482   0.46566   0.03373   0.272215  
         H         H         0.52086   0.09108   0.02221   0.103097  
         H         H         0.40984   0.97375   0.02384   0.112643  
         H         H         0.52398   0.97371   0.90935   0.117933  
         C         C         0.12972   0.72313   0.84602   -0.214463           
         C         C         0.09731   0.69374   0.81601   -0.076479           
         C         C         0.07431   0.65113   0.83500   -0.121533           
         C         C         0.08115   0.63656   0.88493   -0.038536           
         C         C         0.13600   0.70970   0.89613   -0.190922           
         C         C         0.11077   0.66865   0.91502   0.261357  
         H         H         0.41742   0.87424   0.97864   0.066188  
         H         H         0.09069   0.70426   0.77754   0.110119  
         H         H         0.05009   0.62811   0.81120   0.110273  
         H         H         0.15964   0.73187   0.92112   0.138219  
         F         F         0.11381   0.66149   0.96483   -0.143055           
         B         B         0.15820   0.76998   0.82707   0.731621  
         C         C         0.59982   0.90669   0.04902   0.074390  
         O         O         0.80013   0.78822   0.14396   -0.566810           
         N         N         0.93618   0.43040   0.93989   -0.285480           
         C         C         0.96882   0.46674   0.96506   0.271790  
         H         H         0.47444   0.08897   0.97435   0.106335  
         H         H         0.59090   0.97637   0.97509   0.110442  
         H         H         0.47702   0.97722   0.08969   0.118395  
         C         C         0.86977   0.72331   0.15345   -0.216039           
         C         C         0.89543   0.69099   0.18594   -0.076620           
         C         C         0.92092   0.64906   0.16726   -0.124405           
         C         C         0.92299   0.63830   0.11574   -0.033268           
         C         C         0.87287   0.71392   0.10180   -0.186267           
         C         C         0.90033   0.67323   0.08368   0.255440  
         H         H         0.59113   0.88536   0.01458   0.065751  
         H         H         0.89459   0.69858   0.22586   0.111307  
         H         H         0.93958   0.62331   0.19252   0.111741  
         H         H         0.85475   0.73886   0.07548   0.137133  
         F         F         0.90636   0.66907   0.03340   -0.143602           
         B         B         0.83770   0.23031   0.83060   0.727783  
         C         C         0.40384   0.09528   0.05167   0.072046  
         O         O         0.19712   0.20834   0.14369   -0.566923           
         N         N         0.07006   0.56896   0.94297   -0.286612           
         C         C         0.03703   0.53228   0.96674   0.271898  
         H         H         0.52480   0.90591   0.97620   0.103683  
         H         H         0.40836   0.01869   0.97604   0.113418  
         H         H         0.52436   0.02368   0.08895   0.116920  
         C         C         0.12432   0.27027   0.14983   -0.216503           
         C         C         0.08897   0.29690   0.17916   -0.074722           
         C         C         0.06486   0.33929   0.16071   -0.124431           
         C         C         0.07388   0.35657   0.11206   -0.034264           
         C         C         0.13211   0.28583   0.10060   -0.187148           
         C         C         0.10608   0.32676   0.08212   0.257588  
         H         H         0.41392   0.11800   0.01919   0.065645  
         H         H         0.08085   0.28431   0.21666   0.111179  
         H         H         0.03842   0.36022   0.18410   0.111045  
         H         H         0.15784   0.26558   0.07602   0.138813  
         F         F         0.11124   0.33604   0.03280   -0.144034           
         B         B         0.15438   0.22454   0.16939   0.726170  
         C         C         0.59399   0.09414   0.94762   0.073241  
         O         O         0.79508   0.21445   0.85609   -0.565703           
         N         N         0.93642   0.57160   0.05661   -0.285812           
         C         C         0.96861   0.53362   0.03303   0.270488  
         H         H         0.47922   0.90655   0.02473   0.105953  
         H         H         0.59042   0.02376   0.02180   0.111399  
         H         H         0.47431   0.01800   0.90918   0.119013  
         C         C         0.86838   0.27607   0.84982   -0.217280           
         C         C         0.90003   0.30261   0.81748   -0.074291           
         C         C         0.92667   0.34437   0.83452   -0.124879           
         C         C         0.92378   0.36073   0.88454   -0.031744           
         C         C         0.86632   0.29105   0.90028   -0.186853           
         C         C         0.89490   0.33142   0.91707   0.255338  
         H         H         0.58622   0.11439   0.98290   0.065255  
         H         H         0.90314   0.29031   0.77880   0.111215  
         H         H         0.95022   0.36532   0.80905   0.112179  
         H         H         0.84336   0.27095   0.92689   0.137707  
         F         F         0.89623   0.34090   0.96699   -0.144028           
         C         C         0.00356   0.00301   0.43497   -0.290402           
         C         C         0.00239   0.00224   0.56606   -0.293431           
         C         C         0.43362   0.99671   -0.00025  -0.285696           
         C         C         0.56608   -0.00032  0.99862   -0.291457           
         C         C         0.00123   0.43368   -0.00092  -0.288299           
         C         C         0.00315   0.56550   0.00010   -0.286022           
         C         C         0.00263   0.06872   0.50206   -0.305325           
         C         C         0.00294   0.93648   0.49933   -0.307133           
         C         C         0.50053   -0.00016  0.06505   -0.306645           
         C         C         0.49934   0.99649   0.93354   -0.309614           
         C         C         0.06886   0.49858   0.00103   -0.305141           
         C         C         0.93578   0.50077   0.99843   -0.303860           
         C         C         0.07091   0.00227   0.50100   -0.317767           
         C         C         0.93489   0.00255   0.49976   -0.318699           
         C         C         0.49819   0.06583   0.99854   -0.322046           
         C         C         0.50153   0.93043   0.00011   -0.320382           
         C         C         0.00110   0.49984   0.06686   -0.320569           
         C         C         0.00365   0.49903   0.93257   -0.319892 

