
##########################################################################
#               Crystallographic Information Format file
#               Produced by PyCifRW module
#
#  This is a CIF file.  CIF has been adopted by the International
#  Union of Crystallography as the standard for data archiving and
#  transmission.
#
#  For information on this file format, follow the CIF links at
#  http://www.iucr.org
##########################################################################

data_image0

_cell_length_a                          22.3968
_cell_length_b                          22.2501
_cell_length_c                          8.00163
_cell_angle_alpha                       82.9975
_cell_angle_beta                        63.5905
_cell_angle_gamma                       119.611
_symmetry_space_group_name_H-M          'P 1'
_space_group_name_Hall                  'P 1'
loop_
  _atom_site_type_symbol
  _atom_site_label
  _atom_site_fract_x
  _atom_site_fract_y
  _atom_site_fract_z
  _atom_site_charge
         O         O         0.28634   0.52972   0.23607   -0.469769           
         N         N         0.41502   0.55530   0.21217   -0.259178           
         C         C         0.31103   0.59560   0.23100   0.352057  
         C         C         0.38745   0.64594   0.21771   -0.237419           
         C         C         0.43650   0.62370   0.20850   0.149457  
         C         C         0.45725   0.52593   0.21386   0.326912  
         C         C         0.42368   0.45115   0.22928   -0.205265           
         N         N         0.52808   0.57030   0.20235   -0.316506           
         H         H         0.36710   0.41795   0.23340   0.137447  
         H         H         0.49346   0.66148   0.19973   0.109114  
         H         H         0.35827   0.52351   0.22411   0.274607  
         O         O         0.48132   0.76307   0.20849   -0.460864           
         N         N         0.45049   0.85840   0.24758   -0.272706           
         C         C         0.41433   0.72035   0.21945   0.357597  
         C         C         0.36208   0.74356   0.23671   -0.252388           
         C         C         0.38247   0.81204   0.25021   0.145169  
         C         C         0.47879   0.92905   0.25442   0.327346  
         C         C         0.55170   0.96963   0.25063   -0.203620           
         N         N         0.43610   0.95578   0.26002   -0.317213           
         H         H         0.58314   0.94469   0.24933   0.142482  
         H         H         0.34324   0.82919   0.26404   0.112306  
         H         H         0.48296   0.83535   0.23457   0.273630  
         O         O         0.24378   0.71868   0.24854   -0.466427           
         N         N         0.14554   0.59548   0.23726   -0.234174           
         C         C         0.28708   0.69639   0.24074   0.356950  
         C         C         0.26306   0.62288   0.23687   -0.251474           
         C         C         0.19304   0.57564   0.23727   0.109575  
         C         C         0.07278   0.55196   0.24410   0.155148  
         C         C         0.03467   0.58496   0.22860   -0.126280           
         C         C         0.03405   0.47569   0.27006   0.006811  
         H         H         0.06341   0.64417   0.20675   0.136774  
         H         H         0.17778   0.52125   0.23465   0.104837  
         H         H         0.05968   0.44653   0.28745   0.106408  
         H         H         0.16895   0.64985   0.23682   0.271183  
         O         O         0.70879   0.47256   0.25037   -0.476699           
         N         N         0.58100   0.44043   0.24791   -0.229514           
         C         C         0.68672   0.40626   0.26499   0.350452  
         C         C         0.61188   0.35225   0.27595   -0.242863           
         C         C         0.56314   0.37189   0.26608   0.116917  
         C         C         0.53726   0.46606   0.23162   0.141714  
         C         C         0.56672   0.54081   0.21057   0.004542  
         C         C         0.46404   0.42096   0.23887   -0.144380           
         H         H         0.62403   0.57790   0.20173   0.106145  
         H         H         0.50871   0.32935   0.27149   0.100268  
         H         H         0.43883   0.36319   0.25141   0.128040  
         H         H         0.63598   0.47570   0.24056   0.272958  
         O         O         0.52151   0.23096   0.29371   -0.472833           
         N         N         0.55954   0.13898   0.26879   -0.240584           
         C         C         0.58706   0.27686   0.28534   0.357771  
         C         C         0.64093   0.25753   0.27830   -0.249453           
         C         C         0.62544   0.18995   0.26733   0.127519  
         C         C         0.53725   0.06947   0.25933   0.148923  
         C         C         0.46504   0.02421   0.26272   0.010319  
         C         C         0.58151   0.04083   0.25204   -0.133608           
         H         H         0.42972   0.04521   0.26668   0.107784  
         H         H         0.66932   0.17927   0.25523   0.103497  
         H         H         0.63721   0.07277   0.25164   0.127944  
         H         H         0.52380   0.15793   0.27852   0.272830  
         O         O         0.75827   0.28817   0.27930   -0.459005           
         N         N         0.85579   0.41822   0.27199   -0.254272           
         C         C         0.71454   0.30815   0.27677   0.356976  
         C         C         0.73599   0.38221   0.27107   -0.249087           
         C         C         0.80540   0.43336   0.26827   0.118793  
         C         C         0.92797   0.46611   0.26461   0.319489  
         N         N         0.96400   0.43392   0.27805   -0.310410           
         C         C         0.96089   0.54158   0.24144   -0.217441           
         H         H         0.81842   0.48783   0.26394   0.099536  
         H         H         0.93063   0.56632   0.22996   0.133680  
         H         H         0.83710   0.36410   0.27836   0.289552  
         O         O         0.28227   0.52507   0.73450   -0.473780           
         N         N         0.40958   0.54739   0.71461   -0.260301           
         C         C         0.30824   0.59105   0.72995   0.353888  
         C         C         0.38476   0.64004   0.71754   -0.238965           
         C         C         0.43220   0.61609   0.71041   0.146223  
         C         C         0.45140   0.51755   0.71689   0.327628  
         C         C         0.41730   0.44239   0.73524   -0.208799           
         N         N         0.52271   0.56228   0.70321   -0.318437           
         H         H         0.36001   0.40864   0.74254   0.137792  
         H         H         0.48901   0.65281   0.70315   0.110900  
         H         H         0.35325   0.51644   0.72481   0.277092  
         O         O         0.48034   0.75624   0.70890   -0.461372           
         N         N         0.45343   0.85465   0.74251   -0.271020           
         C         C         0.41348   0.71489   0.71861   0.360794  
         C         C         0.36274   0.73982   0.73448   -0.250290           
         C         C         0.38500   0.80887   0.74600   0.141319  
         C         C         0.48176   0.92523   0.75034   0.324812  
         C         C         0.55493   0.96636   0.74541   -0.204937           
         N         N         0.43830   0.95131   0.75827   -0.315656           
         H         H         0.58722   0.94215   0.74208   0.143304  
         H         H         0.34683   0.82724   0.75911   0.110972  
         H         H         0.48503   0.83091   0.73122   0.275362  
         O         O         0.24446   0.71692   0.74962   -0.467745           
         N         N         0.14348   0.59375   0.73990   -0.235749           
         C         C         0.28703   0.69366   0.74032   0.356226  
         C         C         0.26140   0.61983   0.73665   -0.250908           
         C         C         0.19100   0.57352   0.73780   0.111053  
         C         C         0.07078   0.55052   0.74595   0.157037  
         C         C         0.03310   0.58373   0.72842   -0.125778           
         C         C         0.03189   0.47419   0.77206   0.007019  
         H         H         0.06225   0.64315   0.70485   0.135109  
         H         H         0.17526   0.51917   0.73393   0.103162  
         H         H         0.05735   0.44490   0.78997   0.106176  
         H         H         0.16702   0.64791   0.74020   0.272329  
         O         O         0.70286   0.46648   0.75774   -0.475755           
         N         N         0.57605   0.43304   0.74987   -0.231362           
         C         C         0.68273   0.40093   0.76877   0.350888  
         C         C         0.60886   0.34646   0.77686   -0.241710           
         C         C         0.55962   0.36511   0.76560   0.116254  
         C         C         0.53180   0.45804   0.73410   0.142273  
         C         C         0.56148   0.53298   0.71127   0.005575  
         C         C         0.45788   0.41237   0.74454   -0.141825           
         H         H         0.61915   0.57034   0.70077   0.105866  
         H         H         0.50633   0.32255   0.76733   0.099967  
         H         H         0.43222   0.35425   0.75985   0.128268  
         H         H         0.63034   0.46845   0.74522   0.272147  
         O         O         0.51942   0.22460   0.79652   -0.472387           
         N         N         0.56063   0.13478   0.76663   -0.238843           
         C         C         0.58520   0.27139   0.78634   0.357669  
         C         C         0.64012   0.25328   0.77857   -0.245073           
         C         C         0.62597   0.18620   0.76648   0.126395  
         C         C         0.53914   0.06545   0.75670   0.149954  
         C         C         0.46669   0.01958   0.76147   0.010745  
         C         C         0.58409   0.03742   0.74794   -0.132254           
         H         H         0.43059   0.03989   0.76751   0.107260  
         H         H         0.67034   0.17625   0.75488   0.103556  
         H         H         0.63998   0.06984   0.74665   0.127753  
         H         H         0.52401   0.15285   0.77767   0.270511  
         O         O         0.75808   0.28594   0.77936   -0.458349           
         N         N         0.85386   0.41652   0.77291   -0.253900           
         C         C         0.71345   0.30486   0.77734   0.357123  
         C         C         0.73335   0.37841   0.77327   -0.249254           
         C         C         0.80246   0.43044   0.77073   0.117484  
         C         C         0.92603   0.46479   0.76538   0.319637  
         N         N         0.96190   0.43254   0.77982   -0.309507           
         C         C         0.95943   0.54049   0.74044   -0.218926           
         H         H         0.81435   0.48442   0.76817   0.101477  
         H         H         0.92984   0.56562   0.72631   0.136248  
         H         H         0.83608   0.36268   0.77838   0.289599 

