
##########################################################################
#               Crystallographic Information Format file
#               Produced by PyCifRW module
#
#  This is a CIF file.  CIF has been adopted by the International
#  Union of Crystallography as the standard for data archiving and
#  transmission.
#
#  For information on this file format, follow the CIF links at
#  http://www.iucr.org
##########################################################################

data_image0

_cell_length_a                          32.2325
_cell_length_b                          31.9328
_cell_length_c                          32.0782
_cell_angle_alpha                       89.8895
_cell_angle_beta                        89.868
_cell_angle_gamma                       90.0761
_symmetry_space_group_name_H-M          'P 1'
_space_group_name_Hall                  'P 1'
loop_
  _atom_site_type_symbol
  _atom_site_label
  _atom_site_fract_x
  _atom_site_fract_y
  _atom_site_fract_z
  _atom_site_charge
         C         C         0.43356   0.43038   0.09614   -0.242051           
         C         C         0.47062   0.41466   0.07889   -0.044282           
         C         C         0.41757   0.46785   0.07935   -0.045366           
         C         C         0.49105   0.43570   0.04670   -0.153174           
         C         C         0.43809   0.48891   0.04728   -0.150091           
         C         C         0.47525   0.47330   0.03046   0.077459  
         C         C         0.56896   0.56955   0.09583   -0.241872           
         C         C         0.53172   0.58539   0.07916   -0.045488           
         C         C         0.58463   0.53202   0.07897   -0.047107           
         C         C         0.51092   0.56443   0.04730   -0.152928           
         C         C         0.56392   0.51127   0.04702   -0.150539           
         C         C         0.52673   0.52707   0.03057   0.076490  
         C         C         0.57145   0.43245   0.90498   -0.240775           
         C         C         0.53390   0.41647   0.92107   -0.046848           
         C         C         0.58651   0.47029   0.92174   -0.045875           
         C         C         0.51243   0.43733   0.95251   -0.151289           
         C         C         0.56498   0.49110   0.95324   -0.151833           
         C         C         0.52768   0.47487   0.96929   0.077146  
         C         C         0.42982   0.56744   0.90487   -0.242064           
         C         C         0.46621   0.58488   0.92181   -0.046212           
         C         C         0.41564   0.52912   0.92148   -0.044649           
         C         C         0.48784   0.56468   0.95359   -0.152460           
         C         C         0.43729   0.50896   0.95325   -0.152985           
         C         C         0.47382   0.52629   0.96978   0.077430  
         C         C         0.09451   0.43258   0.42956   -0.241189           
         C         C         0.07706   0.46984   0.41398   -0.045932           
         C         C         0.07853   0.41620   0.46711   -0.048394           
         C         C         0.04526   0.49005   0.43541   -0.150421           
         C         C         0.04690   0.43659   0.48862   -0.147458           
         C         C         0.02975   0.47385   0.47308   0.074921  
         C         C         0.09732   0.56575   0.56733   -0.243041           
         C         C         0.07857   0.52960   0.58414   -0.043474           
         C         C         0.08133   0.58189   0.52976   -0.046151           
         C         C         0.04559   0.51007   0.56390   -0.155257           
         C         C         0.04854   0.56221   0.50946   -0.150842           
         C         C         0.03025   0.52584   0.52606   0.077738  
         C         C         0.90528   0.56847   0.42958   -0.243105           
         C         C         0.91987   0.52913   0.41618   -0.047263           
         C         C         0.92397   0.58645   0.46495   -0.045870           
         C         C         0.95133   0.50854   0.43763   -0.147991           
         C         C         0.95545   0.56573   0.48644   -0.151789           
         C         C         0.96958   0.52641   0.47315   0.077248  
         C         C         0.90199   0.43236   0.56650   -0.241772           
         C         C         0.91814   0.47031   0.58202   -0.046543           
         C         C         0.92074   0.41516   0.53073   -0.044905           
         C         C         0.95093   0.49058   0.56199   -0.149441           
         C         C         0.95354   0.43549   0.51079   -0.154789           
         C         C         0.96894   0.47369   0.52584   0.076725  
         C         C         0.42982   0.09686   0.43411   -0.240276           
         C         C         0.41309   0.07738   0.46980   -0.045819           
         C         C         0.46783   0.08164   0.41847   -0.047744           
         C         C         0.43393   0.04469   0.48955   -0.154154           
         C         C         0.48869   0.04912   0.43836   -0.149922           
         C         C         0.47226   0.03028   0.47441   0.076917  
         C         C         0.56873   0.09355   0.57126   -0.241478           
         C         C         0.58533   0.07575   0.53470   -0.046750           
         C         C         0.52927   0.07973   0.58448   -0.048030           
         C         C         0.56382   0.04496   0.51279   -0.152944           
         C         C         0.50775   0.04911   0.56244   -0.149544           
         C         C         0.52495   0.03067   0.52660   0.078073  
         C         C         0.43074   0.90451   0.57074   -0.243333           
         C         C         0.41670   0.91865   0.53158   -0.046636           
         C         C         0.46636   0.92360   0.58756   -0.043664           
         C         C         0.43760   0.95021   0.51010   -0.150129           
         C         C         0.48711   0.95538   0.56611   -0.155057           
         C         C         0.47306   0.96920   0.52706   0.078519  
         C         C         0.56786   0.90367   0.43196   -0.237956           
         C         C         0.58222   0.91930   0.47039   -0.047732           
         C         C         0.53187   0.92192   0.41499   -0.047719           
         C         C         0.56125   0.95126   0.49109   -0.149529           
         C         C         0.51099   0.95407   0.43565   -0.153646           
         C         C         0.52529   0.96929   0.47408   0.075524  
         H         H         0.48320   0.42461   0.96384   0.111916  
         H         H         0.51611   0.57866   0.96570   0.112931  
         H         H         0.51983   0.42299   0.03439   0.112604  
         H         H         0.48174   0.57688   0.03571   0.111905  
         H         H         0.96148   0.47785   0.42712   0.112768  
         H         H         0.96229   0.52024   0.57408   0.112454  
         H         H         0.03266   0.51914   0.42317   0.110984  
         H         H         0.03209   0.48180   0.57719   0.111967  
         H         H         0.42659   0.96005   0.47960   0.112647  
         H         H         0.57253   0.96197   0.52116   0.112442  
         H         H         0.42059   0.03061   0.51741   0.111402  
         H         H         0.57722   0.03211   0.48444   0.112613  
         H         H         0.42598   0.47913   0.96513   0.112026  
         H         H         0.57701   0.52051   0.96525   0.112723  
         H         H         0.42538   0.51809   0.03536   0.109113  
         H         H         0.57635   0.48205   0.03500   0.112457  
         H         H         0.48290   0.96701   0.42205   0.111410  
         H         H         0.51468   0.96940   0.57969   0.112805  
         H         H         0.51845   0.03865   0.42625   0.112914  
         H         H         0.47700   0.03968   0.57291   0.112694  
         H         H         0.96690   0.42193   0.48279   0.111494  
         H         H         0.96882   0.58004   0.51405   0.111713  
         H         H         0.03585   0.42381   0.51808   0.111705  
         H         H         0.03748   0.57469   0.47995   0.111589  
         H         H         0.38898   0.48089   0.09196   0.108718  
         H         H         0.61316   0.51884   0.09143   0.109602  
         H         H         0.61514   0.48377   0.90956   0.109345  
         H         H         0.38771   0.51476   0.90890   0.108474  
         H         H         0.09172   0.38753   0.47977   0.108704  
         H         H         0.09523   0.60983   0.51612   0.108889  
         H         H         0.91332   0.61680   0.47603   0.107922  
         H         H         0.90899   0.38586   0.51809   0.108382  
         H         H         0.48138   0.09594   0.39078   0.110061  
         H         H         0.51522   0.09359   0.61207   0.109343  
         H         H         0.47809   0.91322   0.61764   0.108232  
         H         H         0.51990   0.91040   0.38544   0.109294  
         H         H         0.48380   0.38584   0.09118   0.108763  
         H         H         0.51862   0.61412   0.09181   0.108207  
         H         H         0.47787   0.61440   0.90944   0.109408  
         H         H         0.52118   0.38767   0.90821   0.108981  
         H         H         0.38374   0.08841   0.48254   0.108061  
         H         H         0.61531   0.08642   0.52314   0.108971  
         H         H         0.60989   0.90581   0.48438   0.108910  
         H         H         0.38946   0.90424   0.51762   0.108869  
         H         H         0.08895   0.48333   0.38512   0.108986  
         H         H         0.09034   0.51649   0.61314   0.108864  
         H         H         0.90435   0.48431   0.60970   0.108894  
         H         H         0.90592   0.51440   0.38903   0.109701  
         C         C         0.50094   0.50045   -0.00004  0.002615  
         C         C         -0.00042  0.49999   0.49975   0.000725  
         C         C         0.49894   -0.00015  0.50036   0.002105  
         C         C         0.63431   0.60255   0.18499   0.161931  
         C         C         0.66512   0.60030   0.21453   -0.216256           
         C         C         0.69474   0.63757   0.27715   -0.111300           
         C         C         0.66639   0.63345   0.24430   0.052950  
         H         H         0.68722   0.57466   0.21557   0.151613  
         C         C         0.36772   0.39727   0.18516   0.179350  
         C         C         0.33549   0.39921   0.21365   -0.225016           
         C         C         0.30498   0.36500   0.27741   -0.117428           
         C         C         0.33504   0.36819   0.24511   0.079834  
         H         H         0.31190   0.42342   0.21179   0.154335  
         C         C         0.36382   0.60143   0.81652   0.176978  
         C         C         0.33174   0.60033   0.78796   -0.223671           
         C         C         0.30222   0.63588   0.72470   -0.118144           
         C         C         0.33184   0.63197   0.75712   0.079058  
         H         H         0.30768   0.57652   0.78910   0.154019  
         C         C         0.63536   0.39799   0.81521   0.176380  
         C         C         0.66545   0.40025   0.78453   -0.221621           
         C         C         0.69342   0.36486   0.72083   -0.118538           
         C         C         0.66489   0.36818   0.75430   0.079605  
         H         H         0.68822   0.42535   0.78355   0.154232  
         C         C         0.18607   0.63091   0.60134   0.168604  
         C         C         0.21418   0.66343   0.60082   -0.224427           
         C         C         0.27515   0.69497   0.63751   -0.117099           
         C         C         0.24396   0.66408   0.63344   0.066586  
         H         H         0.21376   0.68738   0.57673   0.152141  
         C         C         0.18319   0.36738   0.39595   0.168713  
         C         C         0.21159   0.33527   0.39719   -0.225290           
         C         C         0.27506   0.30582   0.36358   -0.119524           
         C         C         0.24308   0.33588   0.36615   0.068432  
         H         H         0.21026   0.31073   0.42065   0.152793  
         C         C         0.81288   0.36680   0.60032   0.168343  
         C         C         0.78534   0.33380   0.60061   -0.225047           
         C         C         0.72322   0.30320   0.63675   -0.116573           
         C         C         0.75398   0.33448   0.63185   0.068236  
         H         H         0.78755   0.30838   0.57827   0.152325  
         C         C         0.81674   0.63380   0.39554   0.178117  
         C         C         0.78828   0.66615   0.39700   -0.223314           
         C         C         0.72476   0.69599   0.36266   -0.117656           
         C         C         0.75690   0.66582   0.36631   0.078303  
         H         H         0.79008   0.69047   0.42058   0.153851  
         C         C         0.60516   0.18006   0.63905   0.161674  
         C         C         0.60372   0.20997   0.66980   -0.217422           
         C         C         0.63940   0.27490   0.69641   -0.112153           
         C         C         0.63568   0.24100   0.66897   0.054119  
         H         H         0.57921   0.21079   0.69306   0.151500  
         C         C         0.39719   0.18779   0.37054   0.162997  
         C         C         0.39895   0.21697   0.33908   -0.217373           
         C         C         0.36171   0.27894   0.30853   -0.112448           
         C         C         0.36598   0.24662   0.33780   0.053536  
         H         H         0.42401   0.21766   0.31641   0.152297  
         C         C         0.60396   0.81575   0.36565   0.170011  
         C         C         0.60381   0.78750   0.33330   -0.223908           
         C         C         0.63921   0.72490   0.30333   -0.116458           
         C         C         0.63559   0.75674   0.33358   0.067428  
         H         H         0.58051   0.78823   0.30891   0.151372  
         C         C         0.39553   0.81568   0.63661   0.162065  
         C         C         0.39671   0.78596   0.66759   -0.216408           
         C         C         0.35966   0.72259   0.69574   -0.110518           
         C         C         0.36421   0.75559   0.66731   0.051047  
         H         H         0.42100   0.78526   0.69099   0.152266  
         C         C         0.60526   0.63573   0.18337   0.179469  
         C         C         0.60507   0.66831   0.21164   -0.224419           
         C         C         0.63987   0.69713   0.27513   -0.118707           
         C         C         0.63588   0.66717   0.24285   0.079864  
         H         H         0.58229   0.69329   0.21014   0.153913  
         C         C         0.39906   0.36626   0.18650   0.160209  
         C         C         0.39978   0.33524   0.21622   -0.214554           
         C         C         0.36212   0.30751   0.27927   -0.110705           
         C         C         0.36714   0.33596   0.24636   0.052068  
         H         H         0.42372   0.31134   0.21702   0.151512  
         C         C         0.60499   0.36593   0.81660   0.162606  
         C         C         0.60319   0.33410   0.78788   -0.215968           
         C         C         0.63865   0.30508   0.72401   -0.110138           
         C         C         0.63400   0.33472   0.75588   0.051085  
         H         H         0.57970   0.30973   0.78928   0.151070  
         C         C         0.39533   0.63237   0.81570   0.161328  
         C         C         0.39665   0.66385   0.78651   -0.214714           
         C         C         0.35959   0.69320   0.72418   -0.110824           
         C         C         0.36419   0.66399   0.75642   0.052088  
         H         H         0.42090   0.68748   0.78620   0.151770  
         C         C         0.63676   0.17915   0.60834   0.177140  
         C         C         0.66840   0.20837   0.60636   -0.221084           
         C         C         0.69654   0.27391   0.63884   -0.118207           
         C         C         0.66786   0.24020   0.63685   0.077091  
         H         H         0.69202   0.20737   0.58219   0.153893  
         C         C         0.36455   0.18622   0.40011   0.176094  
         C         C         0.33216   0.21459   0.40039   -0.223238           
         C         C         0.30296   0.27780   0.36424   -0.116877           
         C         C         0.33284   0.24557   0.36889   0.078985  
         H         H         0.30758   0.21328   0.42358   0.153848  
         C         C         0.36412   0.81666   0.60584   0.178116  
         C         C         0.33194   0.78803   0.60441   -0.224783           
         C         C         0.30226   0.72386   0.63871   -0.119140           
         C         C         0.33187   0.75664   0.63549   0.080945  
         H         H         0.30807   0.78947   0.58061   0.154491  
         C         C         0.63378   0.81473   0.39789   0.168523  
         C         C         0.66540   0.78578   0.39915   -0.224183           
         C         C         0.69658   0.72382   0.36304   -0.119074           
         C         C         0.66661   0.75598   0.36632   0.067210  
         H         H         0.68812   0.78524   0.42410   0.152031  
         C         C         0.18595   0.59958   0.63257   0.168776  
         C         C         0.21414   0.59894   0.66474   -0.224501           
         C         C         0.27520   0.63536   0.69592   -0.119144           
         C         C         0.24397   0.63170   0.66532   0.068443  
         H         H         0.21396   0.57464   0.68847   0.152541  
         C         C         0.18443   0.39945   0.36550   0.169816  
         C         C         0.21434   0.40127   0.33483   -0.224434           
         C         C         0.27697   0.36561   0.30536   -0.118561           
         C         C         0.24437   0.36873   0.33477   0.067161  
         H         H         0.21539   0.42637   0.31195   0.151698  
         C         C         0.81515   0.60126   0.36566   0.161579  
         C         C         0.78528   0.59962   0.33519   -0.215519           
         C         C         0.72315   0.63727   0.30627   -0.110844           
         C         C         0.75557   0.63271   0.33497   0.052304  
         H         H         0.78397   0.57464   0.31231   0.151783  
         C         C         0.81072   0.40013   0.62920   0.169444  
         C         C         0.78109   0.40206   0.66009   -0.224305           
         C         C         0.72046   0.36533   0.69200   -0.117741           
         C         C         0.75216   0.36853   0.66176   0.066696  
         H         H         0.77974   0.42775   0.68218   0.152064  
         O         O         0.62558   0.57465   0.15312   -0.340913           
         O         O         0.37533   0.42378   0.15196   -0.337342           
         O         O         0.37108   0.57440   0.84942   -0.335522           
         O         O         0.62885   0.42533   0.84789   -0.335138           
         O         O         0.15431   0.62288   0.57341   -0.339419           
         O         O         0.15024   0.37460   0.42274   -0.339473           
         O         O         0.84602   0.37359   0.57350   -0.339216           
         O         O         0.84996   0.62706   0.42180   -0.336905           
         O         O         0.57716   0.14799   0.63114   -0.341004           
         O         O         0.42499   0.15593   0.37902   -0.338880           
         O         O         0.57658   0.84827   0.37298   -0.339678           
         O         O         0.42318   0.84812   0.62917   -0.339480           
         O         O         0.57843   0.62919   0.15046   -0.338247           
         O         O         0.42684   0.37316   0.15408   -0.338584           
         O         O         0.57885   0.37310   0.85018   -0.340484           
         O         O         0.42275   0.62497   0.84808   -0.339153           
         O         O         0.62921   0.14654   0.58114   -0.336088           
         O         O         0.37118   0.15299   0.42701   -0.335999           
         O         O         0.37177   0.84954   0.57886   -0.337410           
         O         O         0.62510   0.84637   0.42609   -0.339094           
         O         O         0.15401   0.57163   0.62480   -0.339004           
         O         O         0.15208   0.42705   0.37272   -0.339599           
         O         O         0.84746   0.57350   0.37309   -0.339086           
         O         O         0.84233   0.42832   0.62090   -0.338644           
         B         B         0.59092   0.59110   0.13238   0.592469  
         B         B         0.86840   0.58958   0.40798   0.590938  
         B         B         0.58973   0.86679   0.41044   0.587793  
         B         B         0.41214   0.40894   0.13328   0.589572  
         B         B         0.13149   0.41150   0.40817   0.589913  
         B         B         0.40865   0.13459   0.41365   0.589317  
         B         B         0.40785   0.58887   0.86823   0.589271  
         B         B         0.13468   0.58647   0.58840   0.590035  
         B         B         0.40873   0.86823   0.59308   0.591544  
         B         B         0.59321   0.41029   0.86860   0.588858  
         B         B         0.86404   0.41148   0.58676   0.589435  
         B         B         0.59167   0.12842   0.59469   0.591039  
         Ni        Ni        0.31320   0.68603   0.68791   0.305210  
         Ni        Ni        0.68387   0.31334   0.68615   0.305175  
         Ni        Ni        0.68791   0.68483   0.31325   0.306120  
         Ni        Ni        0.31539   0.31555   0.31524   0.305322 

