
##########################################################################
#               Crystallographic Information Format file
#               Produced by PyCifRW module
#
#  This is a CIF file.  CIF has been adopted by the International
#  Union of Crystallography as the standard for data archiving and
#  transmission.
#
#  For information on this file format, follow the CIF links at
#  http://www.iucr.org
##########################################################################

data_image0

_cell_length_a                          39.0566
_cell_length_b                          38.8034
_cell_length_c                          9.64206
_cell_angle_alpha                       101.372
_cell_angle_beta                        92.469
_cell_angle_gamma                       120.36
_symmetry_space_group_name_H-M          'P 1'
_space_group_name_Hall                  'P 1'
loop_
  _atom_site_type_symbol
  _atom_site_label
  _atom_site_fract_x
  _atom_site_fract_y
  _atom_site_fract_z
  _atom_site_charge
         C         C         0.48889   0.48505   0.26601   -0.024787           
         C         C         0.52382   0.00423   0.28105   -0.032378           
         C         C         0.00629   0.52003   0.29736   -0.028613           
         C         C         0.52531   0.52174   0.28524   -0.035858           
         C         C         0.48779   0.00311   0.28120   -0.027395           
         C         C         0.00811   0.48489   0.28123   -0.028862           
         C         C         0.44967   0.48261   0.26160   0.045809  
         C         C         0.52701   0.96869   0.29708   0.054500  
         C         C         0.04265   0.56131   0.30841   0.053530  
         C         C         0.56476   0.52507   0.30415   0.051732  
         C         C         0.48496   0.04009   0.28602   0.048469  
         C         C         0.97208   0.44462   0.28314   0.059499  
         C         C         0.41453   0.44797   0.17446   -0.117042           
         C         C         0.55036   0.95722   0.21558   -0.121953           
         C         C         0.04181   0.58483   0.21608   -0.120995           
         C         C         0.59601   0.55171   0.23984   -0.123770           
         C         C         0.45268   0.03646   0.20001   -0.120840           
         C         C         0.95831   0.40936   0.16953   -0.122721           
         C         C         0.37754   0.44542   0.16312   -0.181618           
         C         C         0.55118   0.92201   0.22028   -0.188433           
         C         C         0.07508   0.62286   0.21501   -0.181225           
         C         C         0.63283   0.55409   0.24635   -0.180829           
         C         C         0.45077   0.07052   0.18656   -0.179871           
         C         C         0.92227   0.37269   0.16323   -0.179246           
         C         C         0.37469   0.47811   0.24219   0.237343  
         C         C         0.52816   0.89683   0.30745   0.230237  
         C         C         0.11106   0.63848   0.30884   0.240438  
         C         C         0.63929   0.52942   0.31865   0.230223  
         C         C         0.48159   0.11026   0.26373   0.240365  
         C         C         0.89910   0.37040   0.27246   0.228214  
         C         C         0.40906   0.51238   0.33335   -0.197065           
         C         C         0.50650   0.90909   0.39563   -0.181279           
         C         C         0.11191   0.61623   0.40648   -0.196393           
         C         C         0.60920   0.50403   0.38902   -0.174574           
         C         C         0.51273   0.11443   0.35810   -0.195314           
         C         C         0.91377   0.40470   0.39059   -0.175397           
         C         C         0.44555   0.51441   0.34207   -0.107602           
         C         C         0.50658   0.94471   0.39158   -0.117055           
         C         C         0.07827   0.57838   0.40645   -0.110191           
         C         C         0.57282   0.50228   0.38286   -0.111677           
         C         C         0.51416   0.07998   0.36875   -0.108641           
         C         C         0.94991   0.44100   0.39574   -0.124954           
         H         H         0.47169   0.54159   0.41071   0.101713  
         H         H         0.49013   0.95427   0.46105   0.099195  
         H         H         0.07977   0.56185   0.48304   0.108819  
         H         H         0.55003   0.48264   0.43857   0.104638  
         H         H         0.53917   0.08426   0.43895   0.105240  
         H         H         0.96115   0.46782   0.48595   0.099254  
         C         C         0.48644   0.44489   0.24961   0.050933  
         C         C         0.56139   0.04026   0.26138   0.054233  
         C         C         0.96838   0.52024   0.29824   0.055040  
         C         C         0.52790   0.56112   0.28300   0.064068  
         C         C         0.44851   0.96420   0.26765   0.053286  
         C         C         0.04493   0.48370   0.26223   0.049826  
         C         C         0.46226   0.41717   0.32824   -0.121946           
         C         C         0.59899   0.05207   0.33602   -0.118250           
         C         C         0.96940   0.55577   0.37516   -0.116345           
         C         C         0.55440   0.59785   0.38790   -0.120136           
         C         C         0.41898   0.96430   0.34622   -0.117147           
         C         C         0.05094   0.45611   0.31995   -0.119621           
         C         C         0.46044   0.38002   0.31905   -0.187679           
         C         C         0.63434   0.08694   0.32363   -0.207903           
         C         C         0.93488   0.55786   0.37617   -0.205320           
         C         C         0.55538   0.63430   0.38782   -0.195893           
         C         C         0.38167   0.92859   0.33319   -0.202783           
         C         C         0.08569   0.45488   0.31131   -0.181597           
         C         C         0.48285   0.36927   0.22992   0.232748  
         C         C         0.63309   0.11135   0.23622   0.234197  
         C         C         0.89783   0.52443   0.29819   0.231291  
         C         C         0.53022   0.63484   0.28129   0.223201  
         C         C         0.37215   0.89127   0.23834   0.230463  
         C         C         0.11578   0.48111   0.24344   0.233387  
         C         C         0.50663   0.39622   0.14864   -0.187975           
         C         C         0.59607   0.09925   0.15708   -0.177181           
         C         C         0.89608   0.48893   0.21914   -0.173237           
         C         C         0.50439   0.59866   0.17383   -0.164067           
         C         C         0.40082   0.89057   0.15645   -0.183374           
         C         C         0.10981   0.50770   0.18028   -0.178354           
         C         C         0.50795   0.43314   0.15872   -0.107790           
         C         C         0.56122   0.06391   0.16801   -0.111398           
         C         C         0.93077   0.48723   0.21993   -0.109887           
         C         C         0.50378   0.56265   0.17513   -0.118880           
         C         C         0.43816   0.92657   0.17243   -0.109769           
         C         C         0.07474   0.50851   0.18904   -0.110868           
         N         N         0.33917   0.47914   0.23296   -0.375313           
         N         N         0.52619   0.85959   0.31132   -0.373167           
         N         N         0.14717   0.67481   0.30608   -0.365216           
         N         N         0.67540   0.52918   0.32766   -0.367715           
         N         N         0.48294   0.14621   0.24815   -0.376948           
         N         N         0.86128   0.33459   0.26881   -0.370122           
         C         C         0.30003   0.44703   0.17708   0.463054  
         C         C         0.52885   0.83393   0.19881   0.472674  
         C         C         0.15418   0.69977   0.21325   0.452946  
         C         C         0.70065   0.53638   0.22977   0.464469  
         C         C         0.45241   0.14903   0.18308   0.465339  
         C         C         0.83388   0.30784   0.14829   0.477580  
         C         C         0.26988   0.46015   0.18222   -0.028966           
         C         C         0.52168   0.79405   0.22366   -0.024757           
         C         C         0.19765   0.72996   0.21179   -0.043447           
         C         C         0.73388   0.52882   0.25711   -0.033058           
         C         C         0.46401   0.19168   0.17586   -0.028767           
         C         C         0.79388   0.27544   0.17259   -0.026403           
         C         C         0.23333   0.43567   0.22687   -0.096604           
         C         C         0.54288   0.77728   0.15497   -0.101082           
         C         C         0.20607   0.76372   0.15594   -0.095990           
         C         C         0.76927   0.55083   0.20206   -0.099315           
         C         C         0.43589   0.20342   0.20312   -0.091253           
         C         C         0.77487   0.23586   0.07895   -0.097875           
         C         C         0.27630   0.49456   0.13448   -0.134453           
         C         C         0.49309   0.77189   0.30524   -0.100627           
         C         C         0.22934   0.72453   0.25159   -0.122499           
         C         C         0.72913   0.49773   0.32273   -0.111534           
         C         C         0.49992   0.21849   0.13243   -0.138107           
         C         C         0.77376   0.28433   0.27781   -0.098826           
         N         N         0.48067   0.33165   0.22792   -0.376319           
         N         N         0.66924   0.14654   0.22480   -0.395082           
         N         N         0.86373   0.52813   0.29697   -0.383389           
         N         N         0.53175   0.67201   0.27872   -0.408783           
         N         N         0.33363   0.85624   0.22884   -0.380051           
         N         N         0.15122   0.47950   0.24710   -0.371066           
         C         C         0.48705   0.30822   0.11861   0.474210  
         C         C         0.67369   0.18289   0.20333   0.474240  
         C         C         0.82385   0.49648   0.27740   0.463685  
         C         C         0.49831   0.67582   0.26510   0.472107  
         C         C         0.31932   0.81514   0.16463   0.465188  
         C         C         0.17696   0.48824   0.15075   0.464100  
         C         C         0.47939   0.26823   0.14354   -0.023037           
         C         C         0.71619   0.21451   0.19623   -0.029464           
         C         C         0.79439   0.51032   0.27607   -0.036164           
         C         C         0.50776   0.71745   0.25214   -0.032307           
         C         C         0.27692   0.78648   0.18338   -0.027319           
         C         C         0.20965   0.47943   0.17291   -0.034237           
         C         C         0.50699   0.25604   0.11208   -0.101721           
         C         C         0.73474   0.25437   0.28724   -0.097671           
         C         C         0.75884   0.48805   0.32969   -0.096046           
         C         C         0.48565   0.73356   0.31704   -0.094223           
         C         C         0.26857   0.75227   0.23587   -0.099747           
         C         C         0.24605   0.50354   0.12672   -0.094733           
         C         C         0.44407   0.24193   0.19113   -0.108572           
         C         C         0.73675   0.20529   0.09358   -0.138042           
         C         C         0.79965   0.54218   0.21396   -0.129321           
         C         C         0.53660   0.73973   0.17164   -0.135591           
         C         C         0.24540   0.79211   0.14391   -0.132612           
         C         C         0.20380   0.44581   0.22532   -0.110296           
         H         H         0.41624   0.42238   0.11269   0.110140  
         H         H         0.56723   0.97560   0.14377   0.108940  
         H         H         0.01425   0.57232   0.14118   0.098499  
         H         H         0.59090   0.57012   0.17983   0.106896  
         H         H         0.42886   0.00591   0.13922   0.100338  
         H         H         0.97532   0.41115   0.08192   0.109711  
         H         H         0.35104   0.41868   0.09377   0.139640  
         H         H         0.56880   0.91340   0.15450   0.128685  
         H         H         0.07401   0.64005   0.14071   0.134674  
         H         H         0.65610   0.57400   0.19306   0.128178  
         H         H         0.42613   0.06704   0.11667   0.136632  
         H         H         0.91155   0.34613   0.07288   0.128310  
         H         H         0.40716   0.53770   0.39704   0.122159  
         H         H         0.48991   0.89066   0.46789   0.123484  
         H         H         0.13926   0.62881   0.48288   0.110732  
         H         H         0.61487   0.48613   0.44979   0.122627  
         H         H         0.53638   0.14485   0.42179   0.122613  
         H         H         0.89649   0.40269   0.47744   0.120287  
         H         H         0.44525   0.42544   0.39948   0.106839  
         H         H         0.60025   0.03427   0.40798   0.113674  
         H         H         0.99793   0.58230   0.43439   0.110450  
         H         H         0.57362   0.59753   0.47210   0.109449  
         H         H         0.42573   0.99303   0.41881   0.107388  
         H         H         0.02841   0.43618   0.37591   0.112643  
         H         H         0.44213   0.35945   0.38298   0.124573  
         H         H         0.66289   0.09589   0.38500   0.106829  
         H         H         0.93666   0.58556   0.43806   0.113427  
         H         H         0.57516   0.66222   0.47220   0.110338  
         H         H         0.35980   0.92952   0.39768   0.115922  
         H         H         0.09041   0.43448   0.36110   0.120601  
         H         H         0.52361   0.38796   0.07790   0.131156  
         H         H         0.59535   0.11743   0.08606   0.127556  
         H         H         0.86760   0.46312   0.15749   0.135095  
         H         H         0.48564   0.59949   0.08950   0.129220  
         H         H         0.39352   0.86199   0.08197   0.134495  
         H         H         0.13243   0.52718   0.12402   0.128318  
         H         H         0.52659   0.45364   0.09546   0.101872  
         H         H         0.53293   0.05439   0.10371   0.102121  
         H         H         0.92853   0.45952   0.15715   0.103009  
         H         H         0.48392   0.53439   0.09294   0.101226  
         H         H         0.46009   0.92541   0.10946   0.104727  
         H         H         0.07046   0.52897   0.13825   0.101720  
         O         O         0.29000   0.41089   0.12613   -0.448947           
         O         O         0.53633   0.84193   0.08051   -0.510693           
         O         O         0.12726   0.69732   0.13180   -0.455856           
         O         O         0.69667   0.54744   0.11974   -0.505239           
         O         O         0.41804   0.11942   0.13347   -0.446816           
         O         O         0.84026   0.30934   0.02325   -0.510629           
         H         H         0.22851   0.40882   0.26224   0.128378  
         H         H         0.56389   0.79399   0.08803   0.118644  
         H         H         0.18096   0.76656   0.12083   0.124972  
         H         H         0.77205   0.57394   0.14757   0.119646  
         H         H         0.40777   0.18187   0.23306   0.125891  
         H         H         0.79029   0.22967   0.99523   0.114653  
         H         H         0.30436   0.51323   0.09750   0.106417  
         H         H         0.47608   0.78421   0.35783   0.115120  
         H         H         0.22358   0.69791   0.29067   0.107187  
         H         H         0.70159   0.48011   0.36400   0.117595  
         H         H         0.52175   0.20941   0.11008   0.102978  
         H         H         0.78821   0.31511   0.34966   0.116751  
         O         O         0.49769   0.31803   0.00537   -0.502724           
         O         O         0.64588   0.18896   0.18874   -0.453412           
         O         O         0.81266   0.45980   0.26102   -0.455329           
         O         O         0.46375   0.64759   0.26319   -0.464127           
         O         O         0.33861   0.80237   0.09779   -0.459198           
         O         O         0.17368   0.50168   0.04637   -0.503234           
         H         H         0.53383   0.27630   0.07241   0.121202  
         H         H         0.71854   0.26153   0.36555   0.123037  
         H         H         0.75491   0.46295   0.37478   0.131078  
         H         H         0.46295   0.71576   0.37728   0.127082  
         H         H         0.29312   0.74790   0.26426   0.132497  
         H         H         0.24980   0.52871   0.08246   0.119396  
         H         H         0.42244   0.25116   0.21467   0.114657  
         H         H         0.72214   0.17435   0.02260   0.093675  
         H         H         0.82663   0.55878   0.16820   0.100711  
         H         H         0.55298   0.72676   0.11766   0.095557  
         H         H         0.25147   0.81802   0.09963   0.106015  
         H         H         0.17557   0.42663   0.26026   0.113279  
         H         H         0.69524   0.14842   0.25926   0.276687  
         H         H         0.85419   0.32779   0.36564   0.285224  
         H         H         0.86906   0.55716   0.33110   0.270005  
         H         H         0.68421   0.52641   0.42520   0.277481  
         H         H         0.47705   0.32275   0.32266   0.285405  
         H         H         0.34244   0.50650   0.28333   0.273426  
         H         H         0.16011   0.47624   0.34346   0.276564  
         H         H         0.17105   0.68319   0.38044   0.266554  
         H         H         0.31549   0.86118   0.29166   0.279801  
         H         H         0.52436   0.85227   0.40897   0.284535  
         H         H         0.55910   0.69862   0.30679   0.277872  
         H         H         0.50837   0.17344   0.29835   0.275065  
         C         C         0.48187   0.48370   0.76685   -0.028342           
         C         C         0.52157   0.00479   0.78148   -0.033844           
         C         C         0.00077   0.52153   0.79000   -0.030511           
         C         C         0.51793   0.52053   0.78257   -0.032596           
         C         C         0.48584   0.00431   0.77911   -0.027627           
         C         C         0.00133   0.48584   0.78093   -0.028005           
         C         C         0.44225   0.48052   0.76489   0.048911  
         C         C         0.52449   0.96912   0.79753   0.054766  
         C         C         0.03780   0.56202   0.79918   0.046905  
         C         C         0.55755   0.52395   0.80161   0.053270  
         C         C         0.48377   0.04179   0.78680   0.048929  
         C         C         0.96544   0.44622   0.78754   0.051675  
         C         C         0.40733   0.44648   0.67443   -0.115188           
         C         C         0.55024   0.95961   0.72406   -0.120652           
         C         C         0.03670   0.58896   0.72288   -0.121832           
         C         C         0.58768   0.54734   0.72684   -0.122175           
         C         C         0.45114   0.03877   0.70514   -0.123317           
         C         C         0.95780   0.40892   0.69767   -0.119697           
         C         C         0.37013   0.44360   0.66607   -0.177156           
         C         C         0.55173   0.92481   0.72944   -0.187425           
         C         C         0.07077   0.62655   0.72245   -0.178016           
         C         C         0.62455   0.54976   0.73607   -0.178512           
         C         C         0.44873   0.07306   0.69987   -0.178059           
         C         C         0.92274   0.37144   0.69121   -0.182707           
         C         C         0.36685   0.47530   0.75108   0.237713  
         C         C         0.52699   0.89807   0.80911   0.227171  
         C         C         0.10779   0.63829   0.80054   0.242858  
         C         C         0.63231   0.52844   0.82216   0.231133  
         C         C         0.47958   0.11245   0.77968   0.243657  
         C         C         0.89424   0.37042   0.77643   0.227070  
         C         C         0.40096   0.50877   0.84574   -0.195934           
         C         C         0.50257   0.90809   0.88884   -0.181200           
         C         C         0.10917   0.61263   0.88257   -0.195375           
         C         C         0.60319   0.50631   0.90221   -0.177819           
         C         C         0.51141   0.11598   0.86798   -0.197901           
         C         C         0.90245   0.40688   0.87328   -0.178589           
         C         C         0.43761   0.51114   0.85153   -0.110790           
         C         C         0.50191   0.94331   0.88433   -0.117076           
         C         C         0.07487   0.57540   0.88229   -0.103403           
         C         C         0.56669   0.50443   0.89242   -0.116025           
         C         C         0.51331   0.08133   0.87139   -0.105894           
         C         C         0.93771   0.44402   0.87927   -0.117507           
         H         H         0.46359   0.53806   0.92169   0.102019  
         H         H         0.48312   0.95094   0.94699   0.101064  
         H         H         0.07679   0.55624   0.94678   0.106324  
         H         H         0.54445   0.48723   0.95476   0.101109  
         H         H         0.53865   0.08516   0.93836   0.105499  
         H         H         0.94350   0.47208   0.95341   0.103882  
         C         C         0.48036   0.44409   0.75262   0.052878  
         C         C         0.55941   0.04068   0.76262   0.055899  
         C         C         0.96317   0.52253   0.79021   0.058872  
         C         C         0.52042   0.55969   0.77858   0.057655  
         C         C         0.44618   0.96579   0.76474   0.054097  
         C         C         0.03799   0.48391   0.76368   0.051545  
         C         C         0.45633   0.41631   0.83138   -0.123301           
         C         C         0.59684   0.05329   0.84089   -0.114703           
         C         C         0.96325   0.55551   0.88297   -0.120248           
         C         C         0.55065   0.59742   0.87107   -0.121262           
         C         C         0.41769   0.96630   0.84829   -0.116849           
         C         C         0.04785   0.46295   0.84574   -0.123816           
         C         C         0.45538   0.37967   0.82459   -0.183698           
         C         C         0.63230   0.08728   0.82410   -0.208664           
         C         C         0.92832   0.55679   0.88893   -0.200986           
         C         C         0.55265   0.63423   0.86940   -0.206650           
         C         C         0.38070   0.93076   0.84033   -0.204629           
         C         C         0.08297   0.46232   0.83908   -0.181056           
         C         C         0.47844   0.36950   0.73709   0.228444  
         C         C         0.63126   0.10973   0.72814   0.231066  
         C         C         0.89214   0.52531   0.79961   0.227306  
         C         C         0.52462   0.63424   0.77375   0.228173  
         C         C         0.37037   0.89322   0.74495   0.231915  
         C         C         0.10962   0.48252   0.74906   0.231043  
         C         C         0.50206   0.39648   0.65585   -0.181641           
         C         C         0.59430   0.09722   0.64764   -0.172550           
         C         C         0.89161   0.49283   0.70276   -0.166870           
         C         C         0.49482   0.59702   0.67853   -0.169994           
         C         C         0.39763   0.89230   0.65599   -0.182527           
         C         C         0.09940   0.50199   0.66117   -0.177981           
         C         C         0.50270   0.43299   0.66391   -0.109498           
         C         C         0.55932   0.06289   0.66366   -0.115054           
         C         C         0.92667   0.49187   0.69924   -0.111321           
         C         C         0.49317   0.56064   0.68161   -0.114276           
         C         C         0.43476   0.92818   0.66709   -0.109366           
         C         C         0.06391   0.50214   0.66862   -0.118399           
         N         N         0.33128   0.47636   0.74411   -0.380063           
         N         N         0.52581   0.86114   0.81230   -0.373084           
         N         N         0.14440   0.67393   0.79777   -0.367299           
         N         N         0.66840   0.52809   0.83384   -0.372949           
         N         N         0.48047   0.14865   0.77066   -0.382197           
         N         N         0.85695   0.33364   0.76748   -0.381627           
         C         C         0.29194   0.44441   0.69032   0.467702  
         C         C         0.52950   0.83643   0.69950   0.471818  
         C         C         0.15141   0.70333   0.72385   0.453814  
         C         C         0.69277   0.53286   0.73339   0.467795  
         C         C         0.44875   0.15154   0.71665   0.467402  
         C         C         0.83431   0.30415   0.64382   0.473894  
         C         C         0.26223   0.45823   0.69437   -0.031153           
         C         C         0.52147   0.79610   0.72111   -0.024318           
         C         C         0.19503   0.73292   0.72202   -0.038392           
         C         C         0.72622   0.52568   0.76334   -0.033274           
         C         C         0.46013   0.19358   0.70165   -0.029943           
         C         C         0.79326   0.27147   0.65929   -0.019654           
         C         C         0.22753   0.43752   0.75445   -0.101476           
         C         C         0.54362   0.77985   0.65753   -0.098545           
         C         C         0.20567   0.77153   0.69962   -0.094231           
         C         C         0.76141   0.54767   0.70733   -0.099899           
         C         C         0.43253   0.20608   0.72863   -0.091999           
         C         C         0.77790   0.23027   0.58567   -0.100735           
         C         C         0.26721   0.48950   0.62944   -0.130153           
         C         C         0.49078   0.77305   0.79431   -0.097393           
         C         C         0.22466   0.72260   0.73017   -0.129535           
         C         C         0.72210   0.49508   0.83066   -0.107119           
         C         C         0.49517   0.21891   0.65028   -0.132508           
         C         C         0.76903   0.28184   0.73893   -0.102982           
         N         N         0.47728   0.33237   0.73570   -0.373936           
         N         N         0.66753   0.14353   0.71020   -0.385799           
         N         N         0.85748   0.52805   0.80483   -0.388058           
         N         N         0.52722   0.67169   0.77067   -0.400807           
         N         N         0.33231   0.85842   0.74182   -0.373174           
         N         N         0.14558   0.48191   0.75543   -0.367818           
         C         C         0.48168   0.30784   0.62389   0.477398  
         C         C         0.67216   0.17897   0.67922   0.469735  
         C         C         0.81789   0.49539   0.78329   0.462755  
         C         C         0.49444   0.67646   0.75457   0.469128  
         C         C         0.31696   0.81725   0.67537   0.464618  
         C         C         0.16954   0.48638   0.65343   0.466210  
         C         C         0.47488   0.26859   0.65362   -0.019360           
         C         C         0.71470   0.21023   0.67263   -0.033280           
         C         C         0.78751   0.50811   0.78283   -0.034487           
         C         C         0.50521   0.71853   0.74384   -0.032779           
         C         C         0.27472   0.78910   0.69619   -0.030662           
         C         C         0.20246   0.47816   0.68024   -0.037436           
         C         C         0.50199   0.25570   0.62269   -0.100469           
         C         C         0.72963   0.25161   0.74218   -0.090707           
         C         C         0.75217   0.48583   0.83765   -0.095350           
         C         C         0.48218   0.73419   0.80314   -0.089985           
         C         C         0.26401   0.75020   0.71543   -0.091027           
         C         C         0.23712   0.49866   0.61959   -0.100746           
         C         C         0.44034   0.24372   0.70807   -0.110415           
         C         C         0.73925   0.19965   0.59597   -0.142290           
         C         C         0.79210   0.53948   0.71923   -0.131322           
         C         C         0.53611   0.74168   0.67147   -0.135502           
         C         C         0.24525   0.79962   0.68916   -0.131315           
         C         C         0.19828   0.44802   0.75015   -0.109366           
         H         H         0.40941   0.42183   0.60685   0.108670  
         H         H         0.56856   0.97919   0.65768   0.109230  
         H         H         0.00827   0.57961   0.65984   0.100053  
         H         H         0.58158   0.56315   0.65704   0.101592  
         H         H         0.42723   0.00850   0.64221   0.103718  
         H         H         0.97922   0.40959   0.62822   0.110874  
         H         H         0.34379   0.41730   0.59432   0.137106  
         H         H         0.57112   0.91765   0.66923   0.129498  
         H         H         0.06947   0.64639   0.66015   0.134241  
         H         H         0.64687   0.56710   0.67454   0.129288  
         H         H         0.42353   0.06984   0.63440   0.139540  
         H         H         0.91680   0.34322   0.61794   0.130933  
         H         H         0.39876   0.53318   0.91477   0.122071  
         H         H         0.48432   0.88813   0.95458   0.123270  
         H         H         0.13753   0.62219   0.94702   0.114525  
         H         H         0.60951   0.49082   0.97277   0.122292  
         H         H         0.53508   0.14612   0.93340   0.119376  
         H         H         0.88070   0.40584   0.94188   0.126284  
         H         H         0.43879   0.42426   0.90074   0.104518  
         H         H         0.59798   0.03691   0.91866   0.110600  
         H         H         0.99114   0.58044   0.95182   0.112637  
         H         H         0.57223   0.59764   0.94692   0.113717  
         H         H         0.42515   0.99523   0.92115   0.109202  
         H         H         0.02814   0.44785   0.91851   0.107445  
         H         H         0.43713   0.35908   0.88862   0.123007  
         H         H         0.66081   0.09707   0.88807   0.108877  
         H         H         0.92902   0.58214   0.96417   0.112403  
         H         H         0.57556   0.66295   0.94450   0.110658  
         H         H         0.35973   0.93194   0.90918   0.117056  
         H         H         0.09047   0.44686   0.90634   0.120752  
         H         H         0.51943   0.38844   0.58645   0.129667  
         H         H         0.59385   0.11431   0.57190   0.126384  
         H         H         0.86397   0.46875   0.63097   0.136296  
         H         H         0.47363   0.59719   0.60239   0.131708  
         H         H         0.38954   0.86362   0.58024   0.133814  
         H         H         0.11898   0.51637   0.58736   0.129017  
         H         H         0.52126   0.45356   0.60064   0.102063  
         H         H         0.53097   0.05290   0.59868   0.101459  
         H         H         0.92549   0.46635   0.62429   0.103775  
         H         H         0.47010   0.53189   0.60807   0.102732  
         H         H         0.45554   0.92682   0.59822   0.106486  
         H         H         0.05606   0.51701   0.59975   0.099628  
         O         O         0.28148   0.40810   0.64115   -0.448424           
         O         O         0.53824   0.84553   0.58347   -0.508398           
         O         O         0.12468   0.70524   0.65901   -0.456841           
         O         O         0.68783   0.54155   0.61882   -0.502326           
         O         O         0.41371   0.12215   0.68077   -0.449682           
         O         O         0.84542   0.30390   0.52435   -0.510006           
         H         H         0.22379   0.41330   0.80448   0.128429  
         H         H         0.56617   0.79732   0.59628   0.116997  
         H         H         0.18216   0.77854   0.68866   0.124916  
         H         H         0.76370   0.57034   0.65145   0.115405  
         H         H         0.40504   0.18573   0.76488   0.127910  
         H         H         0.79657   0.22277   0.52133   0.118977  
         H         H         0.29393   0.50553   0.58177   0.107430  
         H         H         0.47307   0.78518   0.84190   0.115061  
         H         H         0.21688   0.69241   0.74374   0.108723  
         H         H         0.69476   0.47740   0.87294   0.116759  
         H         H         0.51650   0.20918   0.62717   0.102877  
         H         H         0.78076   0.31379   0.79570   0.119687  
         O         O         0.48954   0.31599   0.50628   -0.508510           
         O         O         0.64436   0.18485   0.65971   -0.454404           
         O         O         0.80791   0.45896   0.76405   -0.455341           
         O         O         0.45943   0.64862   0.74904   -0.460317           
         O         O         0.33535   0.80406   0.60419   -0.462898           
         O         O         0.16437   0.49544   0.54014   -0.499626           
         H         H         0.52832   0.27476   0.57806   0.119944  
         H         H         0.71005   0.25942   0.79920   0.126032  
         H         H         0.74868   0.46105   0.88390   0.128578  
         H         H         0.45788   0.71546   0.85628   0.125243  
         H         H         0.28689   0.74209   0.71813   0.127801  
         H         H         0.23968   0.52125   0.56288   0.117055  
         H         H         0.41911   0.25358   0.73047   0.111344  
         H         H         0.72755   0.16753   0.54107   0.096835  
         H         H         0.81874   0.55596   0.67183   0.103404  
         H         H         0.55312   0.72897   0.62111   0.096838  
         H         H         0.25297   0.82925   0.66993   0.108267  
         H         H         0.17148   0.43176   0.79703   0.114163  
         H         H         0.69340   0.14560   0.74739   0.269300  
         H         H         0.84716   0.32794   0.86277   0.288386  
         H         H         0.86227   0.55677   0.84199   0.270218  
         H         H         0.67889   0.52828   0.93449   0.281059  
         H         H         0.47623   0.32454   0.83208   0.280861  
         H         H         0.33474   0.50386   0.79370   0.274258  
         H         H         0.15632   0.48186   0.85514   0.277138  
         H         H         0.16862   0.67951   0.86371   0.268940  
         H         H         0.31535   0.86383   0.80947   0.270848  
         H         H         0.52304   0.85282   0.90817   0.286355  
         H         H         0.55475   0.69799   0.80266   0.277317  
         H         H         0.50674   0.17575   0.81434   0.273272 

