
##########################################################################
#               Crystallographic Information Format file
#               Produced by PyCifRW module
#
#  This is a CIF file.  CIF has been adopted by the International
#  Union of Crystallography as the standard for data archiving and
#  transmission.
#
#  For information on this file format, follow the CIF links at
#  http://www.iucr.org
##########################################################################

data_image0

_cell_length_a                          37.3702
_cell_length_b                          37.2291
_cell_length_c                          8.36198
_cell_angle_alpha                       65.3662
_cell_angle_beta                        119.748
_cell_angle_gamma                       120.071
_symmetry_space_group_name_H-M          'P 1'
_space_group_name_Hall                  'P 1'
loop_
  _atom_site_type_symbol
  _atom_site_label
  _atom_site_fract_x
  _atom_site_fract_y
  _atom_site_fract_z
  _atom_site_charge
         C         C         0.89160   0.45780   0.26745   0.071748  
         C         C         0.54325   0.43036   0.24519   0.075839  
         C         C         0.56770   0.11373   0.20055   0.075895  
         C         C         0.11040   0.53328   0.22518   0.071719  
         C         C         0.46926   0.57823   0.26294   0.068302  
         C         C         0.41705   0.88805   0.22858   0.055142  
         N         N         0.91201   0.44625   0.22095   -0.300628           
         N         N         0.55981   0.46753   0.27922   -0.300468           
         N         N         0.53667   0.08555   0.26589   -0.288934           
         N         N         0.08928   0.54416   0.27061   -0.300054           
         N         N         0.45467   0.53921   0.25362   -0.290508           
         N         N         0.45722   0.91297   0.23585   -0.296770           
         C         C         0.95580   0.47191   0.23181   0.198498  
         C         C         0.98206   0.45145   0.25801   -0.138963           
         H         H         0.90804   0.48677   0.32126   0.066874  
         H         H         0.96670   0.41733   0.26675   0.119645  
         C         C         0.53217   0.48415   0.26913   0.197334  
         C         C         0.55343   0.52043   0.34441   -0.144701           
         C         C         0.52922   0.53949   0.34185   -0.173354           
         H         H         0.50770   0.41036   0.21046   0.052552  
         H         H         0.58953   0.53265   0.40743   0.116342  
         H         H         0.54652   0.56659   0.40659   0.105935  
         C         C         0.51733   0.04344   0.24856   0.205348  
         C         C         0.47420   0.01952   0.25431   -0.147974           
         H         H         0.57863   0.10669   0.12026   0.065607  
         H         H         0.45844   0.03531   0.26861   0.118018  
         C         C         0.04567   0.51828   0.26104   0.193302  
         C         C         0.01952   0.53868   0.23630   -0.139275           
         H         H         0.09493   0.50429   0.17260   0.067675  
         H         H         0.03492   0.57280   0.22764   0.121321  
         C         C         0.48235   0.52299   0.26230   0.200349  
         C         C         0.46107   0.48653   0.18812   -0.142538           
         C         C         0.48527   0.46772   0.18958   -0.171427           
         H         H         0.50326   0.60066   0.27184   0.057520  
         H         H         0.42496   0.47418   0.12590   0.119649  
         H         H         0.46762   0.44065   0.12444   0.106295  
         C         C         0.47432   0.95611   0.23581   0.191765  
         C         C         0.51754   0.97997   0.23169   -0.134024           
         H         H         0.39324   0.89899   0.21672   0.066642  
         H         H         0.53390   0.96369   0.22445   0.114761  
         C         C         0.02627   0.47391   0.27491   -0.175116           
         H         H         0.04595   0.45711   0.29879   0.109546  
         C         C         0.45296   0.97695   0.24627   -0.159948           
         H         H         0.42010   0.95939   0.25443   0.109874  
         C         C         0.97534   0.51620   0.21967   -0.168974           
         H         H         0.95572   0.53293   0.19708   0.109163  
         C         C         0.53877   0.02272   0.23827   -0.174158           
         H         H         0.57251   0.04011   0.23954   0.113212  
         C         C         0.17710   0.60054   0.27343   -0.094141           
         C         C         0.22045   0.62528   0.28198   -0.135949           
         C         C         0.39576   0.57217   0.22365   -0.089425           
         C         C         0.36953   0.58984   0.21367   -0.126457           
         C         C         0.42873   0.82367   0.27051   -0.103494           
         C         C         0.41247   0.78065   0.27693   -0.129948           
         C         C         0.82174   0.39293   0.20769   -0.099485           
         C         C         0.77909   0.36902   0.20989   -0.136173           
         C         C         0.61653   0.43055   0.31047   -0.097453           
         C         C         0.64067   0.41066   0.31925   -0.130504           
         C         C         0.57176   0.17274   0.28656   -0.110393           
         C         C         0.59206   0.21458   0.30474   -0.134890           
         H         H         0.15856   0.61214   0.29465   0.113971  
         H         H         0.23550   0.65659   0.31125   0.106551  
         H         H         0.38174   0.54020   0.20235   0.112065  
         H         H         0.33420   0.57125   0.18095   0.103408  
         H         H         0.46352   0.84351   0.29263   0.112799  
         H         H         0.43528   0.76673   0.30670   0.106969  
         H         H         0.83685   0.38182   0.16458   0.106050  
         H         H         0.76035   0.33937   0.16245   0.103547  
         H         H         0.63293   0.46062   0.35291   0.110897  
         H         H         0.67673   0.42533   0.37178   0.098597  
         H         H         0.54206   0.15098   0.31970   0.113246  
         H         H         0.57795   0.22527   0.35469   0.098363  
         C         C         0.35571   0.81713   0.20972   -0.127946           
         C         C         0.33940   0.77412   0.21298   -0.132103           
         C         C         0.18044   0.54425   0.21480   -0.129241           
         C         C         0.22407   0.56908   0.22493   -0.137056           
         C         C         0.45939   0.63713   0.28316   -0.135690           
         C         C         0.43309   0.65439   0.27702   -0.135338           
         C         C         0.62811   0.18512   0.18547   -0.125656           
         C         C         0.64857   0.22695   0.20568   -0.140689           
         C         C         0.82627   0.44693   0.31320   -0.123470           
         C         C         0.78381   0.42260   0.31804   -0.135918           
         C         C         0.54869   0.37242   0.19782   -0.128428           
         C         C         0.57295   0.35302   0.20323   -0.133197           
         H         H         0.33343   0.83111   0.18587   0.106634  
         H         H         0.30429   0.75559   0.18783   0.107530  
         H         H         0.16450   0.51277   0.18520   0.103320  
         H         H         0.24109   0.55658   0.19943   0.106553  
         H         H         0.49459   0.65583   0.30898   0.099845  
         H         H         0.44861   0.68611   0.30297   0.104553  
         H         H         0.64186   0.17404   0.13516   0.097945  
         H         H         0.67773   0.24800   0.16810   0.106193  
         H         H         0.84507   0.47709   0.35676   0.103555  
         H         H         0.77038   0.43395   0.36854   0.098064  
         H         H         0.51259   0.35753   0.15002   0.099437  
         H         H         0.55532   0.32362   0.15432   0.108355  
         C         C         0.34988   0.70922   0.24450   0.065370  
         C         C         0.40056   0.84292   0.23560   0.051014  
         C         C         0.36722   0.75467   0.24574   0.070409  
         C         C         0.37439   0.69262   0.23021   -0.175064           
         C         C         0.29044   0.63833   0.25421   0.069192  
         C         C         0.15609   0.55954   0.23784   0.052552  
         C         C         0.24514   0.61052   0.25665   0.066964  
         C         C         0.30804   0.68151   0.25606   -0.180324           
         C         C         0.35927   0.64911   0.23854   0.079315  
         C         C         0.44135   0.59563   0.25779   0.060638  
         C         C         0.38734   0.63129   0.24149   0.074460  
         C         C         0.31715   0.62265   0.24999   -0.170839           
         C         C         0.65177   0.28795   0.27650   0.072758  
         C         C         0.58929   0.15725   0.22548   0.047962  
         C         C         0.63102   0.24284   0.26482   0.066668  
         C         C         0.62763   0.30762   0.27313   -0.176714           
         C         C         0.71439   0.35660   0.27562   0.069768  
         C         C         0.84622   0.43242   0.26027   0.050434  
         C         C         0.75927   0.38286   0.26780   0.067494  
         C         C         0.69564   0.31273   0.28375   -0.185134           
         C         C         0.64573   0.35105   0.27209   0.076837  
         C         C         0.56992   0.41152   0.25077   0.065435  
         C         C         0.61965   0.37146   0.26577   0.072178  
         C         C         0.68888   0.37509   0.27003   -0.176519           
         H         H         0.28917   0.69382   0.27038   0.100378  
         H         H         0.30536   0.58888   0.26006   0.099943  
         H         H         0.40550   0.71406   0.20905   0.102310  
         H         H         0.71560   0.29771   0.29543   0.105592  
         H         H         0.70238   0.40918   0.25794   0.101842  
         H         H         0.59397   0.28875   0.27093   0.104412  
         C         C         0.88697   0.46887   0.75407   0.068502  
         C         C         0.53164   0.42610   0.70952   0.073925  
         C         C         0.57968   0.11297   0.75102   0.057033  
         C         C         0.10825   0.53948   0.73296   0.072984  
         C         C         0.45796   0.56823   0.76710   0.071899  
         C         C         0.43187   0.88669   0.78291   0.075242  
         N         N         0.91196   0.45411   0.75521   -0.291240           
         N         N         0.54757   0.45708   0.78808   -0.291959           
         N         N         0.53953   0.08774   0.74248   -0.296436           
         N         N         0.08436   0.55391   0.74241   -0.299961           
         N         N         0.44101   0.53314   0.71442   -0.298715           
         N         N         0.46311   0.91479   0.71856   -0.289849           
         C         C         0.95443   0.48057   0.75040   0.188830  
         C         C         0.97315   0.46494   0.69525   -0.145098           
         H         H         0.89695   0.50280   0.74367   0.064125  
         H         H         0.95311   0.43431   0.65561   0.120010  
         C         C         0.51972   0.47425   0.77004   0.203960  
         C         C         0.53998   0.51618   0.79536   -0.134678           
         C         C         0.51515   0.53680   0.77423   -0.164437           
         H         H         0.49640   0.41327   0.62016   0.061245  
         H         H         0.57568   0.53191   0.82943   0.116776  
         H         H         0.53187   0.56939   0.79173   0.106227  
         C         C         0.52305   0.04471   0.74124   0.192074  
         C         C         0.47922   0.02064   0.73767   -0.138678           
         H         H         0.60347   0.10254   0.75914   0.063966  
         H         H         0.46174   0.03686   0.73732   0.117141  
         C         C         0.04108   0.52794   0.73890   0.194358  
         C         C         0.02214   0.54365   0.79234   -0.140267           
         H         H         0.09627   0.50646   0.72378   0.062112  
         H         H         0.04243   0.57411   0.83335   0.119125  
         C         C         0.46890   0.51580   0.73256   0.200549  
         C         C         0.44884   0.47360   0.71114   -0.140230           
         C         C         0.47367   0.45292   0.73144   -0.178317           
         H         H         0.49400   0.58509   0.82972   0.057929  
         H         H         0.41332   0.45749   0.68159   0.114354  
         H         H         0.45756   0.42003   0.71792   0.106361  
         C         C         0.48165   0.95710   0.73254   0.208182  
         C         C         0.52539   0.98127   0.73397   -0.146668           
         H         H         0.42053   0.89415   0.86009   0.065889  
         H         H         0.54242   0.96558   0.72738   0.117818  
         C         C         0.01530   0.48823   0.68681   -0.172871           
         H         H         0.02789   0.47571   0.63744   0.105201  
         C         C         0.45878   0.97778   0.73307   -0.172659           
         H         H         0.42460   0.96030   0.72606   0.111069  
         C         C         0.97976   0.52068   0.79808   -0.175496           
         H         H         0.96699   0.53316   0.84666   0.105025  
         C         C         0.54582   0.02395   0.74000   -0.161214           
         H         H         0.57932   0.04145   0.73861   0.111333  
         C         C         0.17515   0.60748   0.76661   -0.096254           
         C         C         0.21858   0.63111   0.77404   -0.137447           
         C         C         0.38463   0.56784   0.70194   -0.100849           
         C         C         0.36059   0.58726   0.69743   -0.127155           
         C         C         0.42744   0.82669   0.70113   -0.109705           
         C         C         0.40739   0.78439   0.68925   -0.134598           
         C         C         0.82651   0.39719   0.77830   -0.091165           
         C         C         0.78353   0.37183   0.77333   -0.126794           
         C         C         0.60636   0.42491   0.81462   -0.090898           
         C         C         0.63269   0.40658   0.83034   -0.130148           
         C         C         0.56852   0.17722   0.71598   -0.108926           
         C         C         0.58528   0.22015   0.71274   -0.126238           
         H         H         0.15752   0.62023   0.78722   0.111792  
         H         H         0.23502   0.66249   0.80460   0.105749  
         H         H         0.36837   0.53705   0.66581   0.110829  
         H         H         0.32470   0.57145   0.65443   0.102190  
         H         H         0.45654   0.84824   0.66307   0.113636  
         H         H         0.42110   0.77321   0.63945   0.097663  
         H         H         0.84878   0.38363   0.79899   0.116153  
         H         H         0.77255   0.33766   0.79457   0.106701  
         H         H         0.62091   0.45344   0.86631   0.110598  
         H         H         0.66856   0.42110   0.89575   0.104752  
         H         H         0.53353   0.15773   0.69045   0.115072  
         H         H         0.56269   0.23445   0.68162   0.107226  
         C         C         0.37228   0.81511   0.80762   -0.124061           
         C         C         0.35198   0.77282   0.79326   -0.137772           
         C         C         0.17691   0.54881   0.71866   -0.124118           
         C         C         0.22000   0.57303   0.72115   -0.134939           
         C         C         0.45209   0.62780   0.79855   -0.132803           
         C         C         0.42785   0.64711   0.79360   -0.134336           
         C         C         0.64158   0.18307   0.78116   -0.127181           
         C         C         0.65840   0.22589   0.78174   -0.130763           
         C         C         0.81363   0.45915   0.72669   -0.129116           
         C         C         0.77019   0.43360   0.71836   -0.138724           
         C         C         0.54071   0.36960   0.66647   -0.132047           
         C         C         0.56725   0.35079   0.68638   -0.135702           
         H         H         0.35889   0.82666   0.85773   0.097987  
         H         H         0.32342   0.75199   0.83539   0.102972  
         H         H         0.16047   0.51672   0.69491   0.103294  
         H         H         0.23605   0.55962   0.69468   0.104535  
         H         H         0.48801   0.64351   0.83888   0.099965  
         H         H         0.44539   0.67742   0.83480   0.107716  
         H         H         0.66365   0.16875   0.80619   0.105111  
         H         H         0.69372   0.24412   0.81164   0.107602  
         H         H         0.82531   0.49342   0.70759   0.103883  
         H         H         0.74864   0.44856   0.69226   0.107819  
         H         H         0.50477   0.35570   0.59837   0.100019  
         H         H         0.55185   0.32278   0.62995   0.105195  
         C         C         0.34889   0.71064   0.73084   0.071036  
         C         C         0.41046   0.84280   0.76223   0.047240  
         C         C         0.36914   0.75624   0.73525   0.066621  
         C         C         0.37310   0.69106   0.73418   -0.172797           
         C         C         0.28722   0.64129   0.74341   0.070026  
         C         C         0.15342   0.56572   0.73825   0.053008  
         C         C         0.24200   0.61496   0.74817   0.067783  
         C         C         0.30544   0.68545   0.72903   -0.183501           
         C         C         0.35561   0.64732   0.74190   0.075004  
         C         C         0.43105   0.58780   0.75367   0.064242  
         C         C         0.38148   0.62723   0.74422   0.075405  
         C         C         0.31318   0.62291   0.75167   -0.176075           
         C         C         0.64892   0.29083   0.75372   0.065323  
         C         C         0.59644   0.15775   0.75039   0.052959  
         C         C         0.63077   0.24563   0.74777   0.068890  
         C         C         0.62530   0.30730   0.77478   -0.174295           
         C         C         0.70927   0.36120   0.75032   0.066277  
         C         C         0.84258   0.44148   0.75659   0.057387  
         C         C         0.75412   0.38913   0.74419   0.067209  
         C         C         0.69037   0.31858   0.73746   -0.184157           
         C         C         0.64164   0.35051   0.77412   0.077807  
         C         C         0.55978   0.40680   0.73126   0.058021  
         C         C         0.61384   0.36893   0.76790   0.074658  
         C         C         0.68423   0.37654   0.76834   -0.168408           
         H         H         0.28552   0.70061   0.71635   0.103331  
         H         H         0.30060   0.58868   0.77000   0.101192  
         H         H         0.40627   0.71025   0.73083   0.102477  
         H         H         0.70733   0.30720   0.70596   0.101448  
         H         H         0.69755   0.40964   0.77373   0.102356  
         H         H         0.59406   0.28618   0.79565   0.105556 

