
##########################################################################
#               Crystallographic Information Format file
#               Produced by PyCifRW module
#
#  This is a CIF file.  CIF has been adopted by the International
#  Union of Crystallography as the standard for data archiving and
#  transmission.
#
#  For information on this file format, follow the CIF links at
#  http://www.iucr.org
##########################################################################

data_image0

_cell_length_a                          37.3788
_cell_length_b                          37.4259
_cell_length_c                          8.47027
_cell_angle_alpha                       121.68
_cell_angle_beta                        85.2412
_cell_angle_gamma                       119.968
_symmetry_space_group_name_H-M          'P 1'
_space_group_name_Hall                  'P 1'
loop_
  _atom_site_type_symbol
  _atom_site_label
  _atom_site_fract_x
  _atom_site_fract_y
  _atom_site_fract_z
  _atom_site_charge
         C         C         0.88663   0.47430   0.23836   0.462489  
         C         C         0.52323   0.40827   0.25970   0.450055  
         C         C         0.58975   0.11030   0.23685   0.463385  
         C         C         0.11596   0.53358   0.28805   0.466347  
         C         C         0.47559   0.58581   0.25525   0.455157  
         C         C         0.41368   0.88341   0.23436   0.463144  
         N         N         0.91548   0.46558   0.27731   -0.378734           
         H         H         0.90677   0.44859   0.34835   0.274604  
         N         N         0.53804   0.44796   0.24419   -0.370081           
         H         H         0.56666   0.46009   0.21078   0.260814  
         N         N         0.54810   0.08549   0.24696   -0.376814           
         H         H         0.52926   0.09554   0.22520   0.264750  
         N         N         0.08735   0.54167   0.24200   -0.372372           
         H         H         0.09746   0.56233   0.18581   0.268196  
         N         N         0.45957   0.54420   0.25939   -0.375515           
         H         H         0.42856   0.52745   0.26353   0.266563  
         N         N         0.45643   0.91184   0.24686   -0.377970           
         H         H         0.47568   0.90368   0.27952   0.263706  
         C         C         0.95844   0.48582   0.26727   0.213541  
         C         C         0.51706   0.47070   0.24708   0.225061  
         C         C         0.52633   0.04224   0.24765   0.218265  
         C         C         0.04443   0.52202   0.25202   0.216389  
         C         C         0.48030   0.52130   0.25674   0.229840  
         C         C         0.47809   0.95513   0.24629   0.217868  
         C         C         0.97886   0.46371   0.27545   -0.180874           
         C         C         0.54040   0.51235   0.23688   -0.183106           
         C         C         0.48194   0.01836   0.22155   -0.187857           
         C         C         0.02403   0.54411   0.24353   -0.186371           
         C         C         0.45695   0.47954   0.26630   -0.184421           
         C         C         0.52253   0.97918   0.27340   -0.185941           
         C         C         0.02123   0.48123   0.26774   -0.169167           
         C         C         0.52260   0.53771   0.24147   -0.151871           
         C         C         0.45777   0.97536   0.22033   -0.166458           
         C         C         0.98157   0.52652   0.25097   -0.167135           
         C         C         0.47474   0.45418   0.26183   -0.152342           
         C         C         0.54668   0.02217   0.27457   -0.168440           
         O         O         0.89559   0.50305   0.18883   -0.474451           
         O         O         0.48686   0.38492   0.27470   -0.454188           
         O         O         0.61444   0.09665   0.22685   -0.467350           
         O         O         0.10627   0.50652   0.34688   -0.477921           
         O         O         0.51272   0.61037   0.25064   -0.452787           
         O         O         0.38753   0.89309   0.21876   -0.463605           
         H         H         0.96141   0.43234   0.28916   0.117434  
         H         H         0.57322   0.52527   0.22520   0.107100  
         H         H         0.46568   0.03299   0.19697   0.116106  
         H         H         0.04151   0.57545   0.22951   0.116720  
         H         H         0.42413   0.46663   0.27813   0.107539  
         H         H         0.53882   0.96450   0.29742   0.115919  
         H         H         0.03671   0.46407   0.27544   0.138567  
         H         H         0.54055   0.56987   0.23352   0.135687  
         H         H         0.42349   0.95707   0.19864   0.138244  
         H         H         0.96602   0.54362   0.24329   0.135980  
         H         H         0.45676   0.42214   0.27057   0.135378  
         H         H         0.58094   0.04034   0.29576   0.141717  
         C         C         0.17464   0.59509   0.21937   -0.110121           
         C         C         0.21650   0.61885   0.20677   -0.135508           
         C         C         0.40424   0.58045   0.29368   -0.123886           
         C         C         0.37733   0.59555   0.28729   -0.136476           
         C         C         0.42549   0.81957   0.22039   -0.125445           
         C         C         0.40950   0.77710   0.22091   -0.135129           
         C         C         0.82551   0.39889   0.22967   -0.118398           
         C         C         0.78323   0.37194   0.23266   -0.133066           
         C         C         0.59915   0.42600   0.29235   -0.125533           
         C         C         0.62629   0.41029   0.28776   -0.128685           
         C         C         0.58199   0.18112   0.30623   -0.119227           
         C         C         0.59809   0.22516   0.31801   -0.137137           
         H         H         0.15366   0.60380   0.18655   0.092474  
         H         H         0.22592   0.64363   0.16002   0.098201  
         H         H         0.39425   0.55587   0.34224   0.090549  
         H         H         0.34783   0.58249   0.33151   0.104712  
         H         H         0.45743   0.83615   0.19875   0.098744  
         H         H         0.42969   0.76266   0.20152   0.101358  
         H         H         0.84483   0.38309   0.20463   0.099900  
         H         H         0.77098   0.33618   0.21124   0.108028  
         H         H         0.61331   0.46382   0.33062   0.101094  
         H         H         0.66045   0.43623   0.32305   0.108118  
         H         H         0.55346   0.16800   0.35693   0.098740  
         H         H         0.58140   0.24450   0.37413   0.105804  
         C         C         0.35905   0.81471   0.25965   -0.080697           
         C         C         0.34331   0.77259   0.26147   -0.124729           
         C         C         0.18935   0.55180   0.31034   -0.085540           
         C         C         0.23135   0.57609   0.29992   -0.129524           
         C         C         0.45562   0.63258   0.19855   -0.101568           
         C         C         0.42826   0.64657   0.18736   -0.135504           
         C         C         0.64160   0.17644   0.19048   -0.080239           
         C         C         0.65752   0.22039   0.20187   -0.130824           
         C         C         0.81564   0.46214   0.27389   -0.083178           
         C         C         0.77375   0.43565   0.28069   -0.131415           
         C         C         0.53885   0.34673   0.21172   -0.088009           
         C         C         0.56596   0.33079   0.20339   -0.130305           
         H         H         0.33972   0.82989   0.27399   0.125266  
         H         H         0.31124   0.75552   0.28031   0.109976  
         H         H         0.17837   0.52604   0.35351   0.112354  
         H         H         0.25343   0.56966   0.33948   0.101131  
         H         H         0.48642   0.64685   0.16489   0.125221  
         H         H         0.43766   0.67095   0.13846   0.098304  
         H         H         0.65801   0.15671   0.13892   0.124166  
         H         H         0.68618   0.23428   0.15338   0.112167  
         H         H         0.82852   0.49690   0.28534   0.121603  
         H         H         0.75430   0.45111   0.30304   0.105996  
         H         H         0.50456   0.32260   0.18440   0.125774  
         H         H         0.55210   0.29309   0.16534   0.107207  
         C         C         0.35079   0.70699   0.24115   0.079237  
         C         C         0.29062   0.63606   0.23592   0.070458  
         C         C         0.36015   0.64520   0.22873   0.069499  
         C         C         0.40048   0.83918   0.23970   -0.037016           
         C         C         0.16015   0.56079   0.26981   -0.040951           
         C         C         0.44397   0.59889   0.25013   -0.046793           
         C         C         0.36802   0.75251   0.24233   0.075158  
         C         C         0.24593   0.60992   0.24624   0.069457  
         C         C         0.38850   0.62867   0.23264   0.065419  
         C         C         0.37647   0.68940   0.23875   -0.178870           
         C         C         0.30824   0.68032   0.24503   -0.173719           
         C         C         0.31674   0.61811   0.22136   -0.182009           
         C         C         0.65321   0.29230   0.27526   0.078686  
         C         C         0.71141   0.36145   0.26502   0.069471  
         C         C         0.63986   0.34746   0.25277   0.061454  
         C         C         0.60353   0.15602   0.24248   -0.041979           
         C         C         0.84243   0.44455   0.25098   -0.026441           
         C         C         0.55493   0.39458   0.25565   -0.040296           
         C         C         0.63643   0.24613   0.26766   0.072781  
         C         C         0.75628   0.38978   0.25992   0.070416  
         C         C         0.61049   0.36240   0.24431   0.071154  
         C         C         0.62585   0.30694   0.26634   -0.171290           
         C         C         0.69626   0.32131   0.28285   -0.171289           
         C         C         0.68243   0.37329   0.24673   -0.184603           
         H         H         0.28814   0.69438   0.25787   0.102124  
         H         H         0.30317   0.58275   0.20533   0.106897  
         H         H         0.41021   0.71095   0.24900   0.100722  
         H         H         0.71830   0.31255   0.30458   0.103665  
         H         H         0.69269   0.40176   0.21891   0.101158  
         H         H         0.59282   0.28571   0.26678   0.101392  
         C         C         0.88426   0.46917   0.72818   0.466681  
         C         C         0.52416   0.41360   0.74760   0.457461  
         C         C         0.58454   0.11236   0.74177   0.463879  
         C         C         0.11329   0.52662   0.76630   0.465417  
         C         C         0.47708   0.59153   0.74229   0.452199  
         C         C         0.40742   0.88564   0.73802   0.465787  
         N         N         0.91301   0.46104   0.77258   -0.374786           
         H         H         0.90387   0.44314   0.83993   0.271729  
         N         N         0.54033   0.45532   0.74407   -0.367886           
         H         H         0.57149   0.47240   0.74231   0.259605  
         N         N         0.54236   0.08678   0.74423   -0.380413           
         H         H         0.52375   0.09668   0.71929   0.268721  
         N         N         0.08558   0.53907   0.74658   -0.383089           
         H         H         0.09516   0.55938   0.68889   0.275495  
         N         N         0.46207   0.55174   0.75751   -0.372650           
         H         H         0.43353   0.53993   0.79184   0.261888  
         N         N         0.45014   0.91396   0.74942   -0.376666           
         H         H         0.46942   0.90638   0.78610   0.263251  
         C         C         0.95610   0.48130   0.76421   0.212876  
         C         C         0.51957   0.47810   0.74534   0.228178  
         C         C         0.52017   0.04350   0.74483   0.216108  
         C         C         0.04243   0.51845   0.75412   0.217001  
         C         C         0.48294   0.52884   0.75427   0.228268  
         C         C         0.47176   0.95693   0.74696   0.219110  
         C         C         0.97633   0.45864   0.76877   -0.179446           
         C         C         0.54294   0.51969   0.73451   -0.185300           
         C         C         0.47568   0.01909   0.71418   -0.185193           
         C         C         0.02222   0.54126   0.75072   -0.182749           
         C         C         0.45948   0.48710   0.76403   -0.184306           
         C         C         0.51628   0.98151   0.77844   -0.186427           
         C         C         0.01895   0.47670   0.76405   -0.167542           
         C         C         0.52520   0.54509   0.73871   -0.152627           
         C         C         0.45142   0.97629   0.71436   -0.171522           
         C         C         0.97963   0.52324   0.75567   -0.167446           
         C         C         0.47719   0.46169   0.75977   -0.152951           
         C         C         0.54047   0.02413   0.77747   -0.169662           
         O         O         0.89345   0.49599   0.66861   -0.482454           
         O         O         0.48712   0.38945   0.75407   -0.453003           
         O         O         0.60936   0.09931   0.73755   -0.464812           
         O         O         0.10337   0.49435   0.79718   -0.467914           
         O         O         0.51365   0.61529   0.73021   -0.454644           
         O         O         0.38123   0.89557   0.72539   -0.468403           
         H         H         0.95849   0.42641   0.77735   0.116641  
         H         H         0.57570   0.53245   0.72166   0.107963  
         H         H         0.45939   0.03324   0.68621   0.115590  
         H         H         0.04001   0.57357   0.74266   0.114905  
         H         H         0.42662   0.47413   0.77528   0.108885  
         H         H         0.53259   0.96773   0.80909   0.116797  
         H         H         0.03441   0.45916   0.76847   0.137156  
         H         H         0.54336   0.57701   0.72923   0.134198  
         H         H         0.41709   0.95761   0.68972   0.141245  
         H         H         0.96430   0.54095   0.75164   0.138933  
         H         H         0.45894   0.42949   0.76748   0.137245  
         H         H         0.57480   0.04276   0.80241   0.138422  
         C         C         0.17640   0.60519   0.80153   -0.118296           
         C         C         0.21923   0.63273   0.80625   -0.133231           
         C         C         0.40108   0.57330   0.70509   -0.123612           
         C         C         0.37391   0.58911   0.71131   -0.131582           
         C         C         0.41925   0.82047   0.70819   -0.119598           
         C         C         0.40379   0.77747   0.70385   -0.135213           
         C         C         0.82465   0.40249   0.77051   -0.114236           
         C         C         0.78300   0.37854   0.78551   -0.131599           
         C         C         0.59504   0.41777   0.70468   -0.125481           
         C         C         0.62170   0.40225   0.70990   -0.134254           
         C         C         0.57781   0.18386   0.81002   -0.125387           
         C         C         0.59429   0.22747   0.81751   -0.133956           
         H         H         0.15797   0.62240   0.83710   0.099697  
         H         H         0.23288   0.67042   0.84504   0.107443  
         H         H         0.38711   0.53538   0.66517   0.100851  
         H         H         0.33975   0.56317   0.67546   0.108181  
         H         H         0.45039   0.83650   0.67911   0.097068  
         H         H         0.42370   0.76230   0.67404   0.105202  
         H         H         0.84451   0.38920   0.77362   0.097545  
         H         H         0.77267   0.34879   0.80569   0.103671  
         H         H         0.60519   0.44262   0.65733   0.091229  
         H         H         0.65121   0.41524   0.66572   0.103554  
         H         H         0.54961   0.17156   0.86371   0.100814  
         H         H         0.57831   0.24770   0.87350   0.098083  
         C         C         0.35380   0.81677   0.76566   -0.075128           
         C         C         0.33859   0.77408   0.76266   -0.128842           
         C         C         0.18353   0.53745   0.72142   -0.077496           
         C         C         0.22592   0.56456   0.72171   -0.127407           
         C         C         0.46132   0.65264   0.78640   -0.084921           
         C         C         0.43418   0.66863   0.79609   -0.132078           
         C         C         0.63644   0.17715   0.68983   -0.082889           
         C         C         0.65260   0.22046   0.69604   -0.128815           
         C         C         0.81262   0.45628   0.74038   -0.084474           
         C         C         0.77090   0.43200   0.75383   -0.130881           
         C         C         0.54334   0.36537   0.79782   -0.098159           
         C         C         0.57037   0.35082   0.80719   -0.134386           
         H         H         0.33457   0.83257   0.79000   0.121438  
         H         H         0.30730   0.75756   0.78912   0.110052  
         H         H         0.16931   0.50044   0.69146   0.122855  
         H         H         0.24442   0.54746   0.68522   0.106449  
         H         H         0.49558   0.67670   0.81297   0.124829  
         H         H         0.44782   0.70630   0.83441   0.107362  
         H         H         0.65220   0.15666   0.63845   0.124447  
         H         H         0.68086   0.23302   0.64328   0.113060  
         H         H         0.82451   0.48640   0.72059   0.117841  
         H         H         0.75038   0.44370   0.74273   0.104510  
         H         H         0.51250   0.35128   0.83135   0.122390  
         H         H         0.56070   0.32602   0.85424   0.098250  
         C         C         0.34696   0.70822   0.73394   0.077759  
         C         C         0.28981   0.64100   0.75851   0.066947  
         C         C         0.36048   0.65299   0.75634   0.061366  
         C         C         0.39450   0.84099   0.73931   -0.038878           
         C         C         0.15787   0.55707   0.75893   -0.027149           
         C         C         0.44530   0.60487   0.74322   -0.043789           
         C         C         0.36303   0.75306   0.73140   0.075908  
         C         C         0.24500   0.61295   0.76428   0.070265  
         C         C         0.38971   0.63727   0.75783   0.073267  
         C         C         0.37402   0.69276   0.73821   -0.169342           
         C         C         0.30447   0.68041   0.73669   -0.171010           
         C         C         0.31859   0.62850   0.77246   -0.183164           
         C         C         0.64944   0.29322   0.76967   0.077951  
         C         C         0.70989   0.36535   0.78372   0.071747  
         C         C         0.63899   0.35328   0.77376   0.068221  
         C         C         0.59869   0.15803   0.74605   -0.041346           
         C         C         0.84035   0.44204   0.74909   -0.033993           
         C         C         0.55539   0.39967   0.74914   -0.047382           
         C         C         0.63210   0.24687   0.76122   0.074012  
         C         C         0.75486   0.39250   0.77710   0.068210  
         C         C         0.61036   0.36898   0.76402   0.064682  
         C         C         0.62292   0.30907   0.76348   -0.178968           
         C         C         0.69261   0.32158   0.77819   -0.174183           
         C         C         0.68269   0.38140   0.78810   -0.181998           
         H         H         0.28195   0.68891   0.71798   0.102138  
         H         H         0.30884   0.60081   0.80441   0.102266  
         H         H         0.40642   0.71202   0.72690   0.100514  
         H         H         0.71303   0.30907   0.78142   0.102867  
         H         H         0.69545   0.41622   0.80082   0.103464  
         H         H         0.58892   0.28563   0.74345   0.103546 

