
##########################################################################
#               Crystallographic Information Format file
#               Produced by PyCifRW module
#
#  This is a CIF file.  CIF has been adopted by the International
#  Union of Crystallography as the standard for data archiving and
#  transmission.
#
#  For information on this file format, follow the CIF links at
#  http://www.iucr.org
##########################################################################

data_image0

_cell_length_a                          30.488
_cell_length_b                          30.6339
_cell_length_c                          7.96437
_cell_angle_alpha                       89.3832
_cell_angle_beta                        100.234
_cell_angle_gamma                       120.344
_symmetry_space_group_name_H-M          'P 1'
_space_group_name_Hall                  'P 1'
loop_
  _atom_site_type_symbol
  _atom_site_label
  _atom_site_fract_x
  _atom_site_fract_y
  _atom_site_fract_z
  _atom_site_charge
         C         C         0.89537   0.42963   0.25571   -0.237912           
         C         C         0.39553   0.92462   0.25850   -0.114872           
         C         C         0.56920   0.46549   0.24140   -0.237286           
         C         C         0.07308   0.47012   0.23801   -0.115095           
         C         C         0.53221   0.10459   0.25598   -0.240899           
         C         C         0.53177   0.60501   0.25975   -0.115748           
         C         C         0.10839   0.57426   0.28485   -0.242015           
         C         C         0.60356   0.07424   0.23214   -0.113905           
         C         C         0.42863   0.53401   0.28182   -0.238183           
         C         C         0.92896   0.53352   0.28028   -0.120963           
         C         C         0.46730   0.89423   0.23045   -0.241408           
         C         C         0.46669   0.39542   0.26222   -0.115621           
         C         C         0.94823   0.46530   0.25409   0.088614  
         C         C         0.44759   0.96269   0.25185   0.066477  
         C         C         0.53497   0.48387   0.24461   0.088076  
         C         C         0.03630   0.48535   0.24798   0.067626  
         C         C         0.51497   0.05196   0.25275   0.088822  
         C         C         0.51626   0.55251   0.25739   0.064139  
         C         C         0.05472   0.53904   0.27051   0.089925  
         C         C         0.55147   0.03616   0.23761   0.064246  
         C         C         0.46353   0.51644   0.27349   0.087206  
         C         C         0.96611   0.51897   0.26823   0.066637  
         C         C         0.48419   0.94686   0.23676   0.087976  
         C         C         0.48224   0.44783   0.25880   0.065009  
         H         H         0.88214   0.38933   0.24738   0.127798  
         H         H         0.36827   0.93669   0.27314   0.109667  
         H         H         0.60955   0.49261   0.23923   0.127158  
         H         H         0.05951   0.42977   0.22137   0.107246  
         H         H         0.50590   0.11798   0.26842   0.127426  
         H         H         0.57226   0.63261   0.25906   0.108882  
         H         H         0.12317   0.61490   0.30088   0.130489  
         H         H         0.63093   0.06185   0.22311   0.106791  
         H         H         0.38877   0.50700   0.29341   0.129798  
         H         H         0.94249   0.57395   0.29390   0.107882  
         H         H         0.49414   0.88157   0.21543   0.129669  
         H         H         0.42674   0.36798   0.27047   0.107245  
         N         N         0.59617   0.19146   0.24545   -0.229159           
         N         N         0.80846   0.40790   0.26524   -0.229157           
         N         N         0.59065   0.40063   0.24919   -0.225721           
         N         N         0.40172   0.80737   0.22367   -0.228438           
         N         N         0.19430   0.59446   0.27832   -0.229005           
         N         N         0.40773   0.59971   0.26465   -0.229976           
         C         C         0.86032   0.44498   0.26771   0.212356  
         C         C         0.38012   0.87407   0.25121   -0.185133           
         C         C         0.55345   0.41464   0.25021   0.211151  
         C         C         0.12464   0.50477   0.25456   -0.184723           
         C         C         0.58266   0.14047   0.24667   0.211063  
         C         C         0.49726   0.62086   0.26599   -0.184078           
         C         C         0.14275   0.55782   0.27467   0.217267  
         C         C         0.61920   0.12481   0.23679   -0.184588           
         C         C         0.44437   0.58492   0.27188   0.213961  
         C         C         0.87824   0.49810   0.28366   -0.179951           
         C         C         0.41640   0.85849   0.23603   0.213735  
         C         C         0.50072   0.37883   0.25862   -0.183410           
         C         C         0.98395   0.44998   0.24048   -0.188031           
         C         C         0.55035   0.53553   0.24021   -0.189699           
         C         C         0.46382   0.01443   0.26016   -0.186973           
         C         C         0.01867   0.55445   0.27626   -0.188926           
         C         C         0.44808   0.46483   0.27233   -0.186106           
         C         C         0.53512   0.98444   0.22831   -0.190031           
         H         H         0.97152   0.40978   0.22921   0.110272  
         H         H         0.58949   0.56318   0.22342   0.114007  
         H         H         0.43579   0.02587   0.26948   0.110026  
         H         H         0.03202   0.59480   0.29104   0.110085  
         H         H         0.40854   0.43707   0.28325   0.109276  
         H         H         0.56307   0.97352   0.21269   0.110098  
         C         C         0.76730   0.41400   0.24873   0.114022  
         C         C         0.58431   0.35390   0.24893   0.114097  
         C         C         0.64350   0.23160   0.24478   0.114379  
         C         C         0.23378   0.58717   0.27060   0.116142  
         C         C         0.41397   0.64609   0.24274   0.112339  
         C         C         0.35435   0.76722   0.22462   0.114597  
         C         C         0.28240   0.62673   0.25598   -0.247771           
         C         C         0.37374   0.65524   0.23701   -0.243810           
         C         C         0.34476   0.71803   0.22638   -0.242730           
         C         C         0.71712   0.37352   0.24105   -0.250811           
         C         C         0.62383   0.34437   0.23643   -0.248392           
         C         C         0.65286   0.28086   0.23783   -0.249162           
         C         C         0.32210   0.61429   0.24810   0.355086  
         C         C         0.38579   0.70744   0.22224   0.354167  
         C         C         0.29305   0.67837   0.24595   0.357649  
         C         C         0.67627   0.38587   0.23593   0.359077  
         C         C         0.61070   0.29129   0.23070   0.358663  
         C         C         0.70672   0.32160   0.24671   0.359396  
         O         O         0.25824   0.68908   0.25644   -0.478836           
         O         O         0.31179   0.56844   0.25438   -0.477348           
         O         O         0.43104   0.74261   0.20642   -0.478051           
         O         O         0.74289   0.31172   0.25882   -0.474943           
         O         O         0.68668   0.43164   0.23693   -0.478408           
         O         O         0.56396   0.25586   0.22092   -0.475101           
         H         H         0.56820   0.20230   0.23747   0.274436  
         H         H         0.77247   0.45174   0.23933   0.101578  
         H         H         0.34040   0.84582   0.25819   0.120023  
         H         H         0.79650   0.36906   0.26609   0.272612  
         H         H         0.54675   0.32179   0.26188   0.100259  
         H         H         0.15143   0.49126   0.25303   0.120978  
         H         H         0.62894   0.42828   0.24303   0.273869  
         H         H         0.67584   0.22521   0.25126   0.100136  
         H         H         0.51025   0.66109   0.26769   0.117287  
         H         H         0.42870   0.79583   0.21906   0.274808  
         H         H         0.22806   0.54914   0.27518   0.101868  
         H         H         0.65918   0.15263   0.23148   0.120455  
         H         H         0.20605   0.63308   0.27428   0.274560  
         H         H         0.45131   0.67821   0.22782   0.101885  
         H         H         0.85147   0.51029   0.30277   0.116981  
         H         H         0.36886   0.57280   0.26935   0.272797  
         H         H         0.32230   0.77341   0.22556   0.099477  
         H         H         0.48726   0.33866   0.26486   0.119028  
         C         C         0.89650   0.42844   0.77827   -0.240358           
         C         C         0.39022   0.92370   0.72882   -0.117658           
         C         C         0.57513   0.46831   0.76192   -0.239040           
         C         C         0.07270   0.46609   0.74493   -0.117094           
         C         C         0.53026   0.10263   0.74134   -0.240854           
         C         C         0.53403   0.60576   0.74956   -0.116114           
         C         C         0.10654   0.56976   0.76323   -0.239566           
         C         C         0.60176   0.07076   0.73764   -0.114713           
         C         C         0.43017   0.53465   0.75591   -0.238880           
         C         C         0.92901   0.53204   0.76855   -0.115808           
         C         C         0.46304   0.89300   0.73656   -0.241119           
         C         C         0.47137   0.39686   0.76932   -0.116061           
         C         C         0.94879   0.46315   0.76948   0.090378  
         C         C         0.44296   0.96140   0.72921   0.067283  
         C         C         0.53968   0.48561   0.76228   0.088034  
         C         C         0.03590   0.48134   0.75453   0.065744  
         C         C         0.51221   0.04984   0.73884   0.087646  
         C         C         0.51928   0.55356   0.75714   0.066023  
         C         C         0.05337   0.53483   0.75840   0.091096  
         C         C         0.54886   0.03329   0.73481   0.067836  
         C         C         0.46575   0.51721   0.76301   0.086331  
         C         C         0.96579   0.51650   0.76412   0.066282  
         C         C         0.48014   0.94521   0.73270   0.088871  
         C         C         0.48603   0.44912   0.76590   0.065422  
         H         H         0.88247   0.38810   0.78341   0.127916  
         H         H         0.36185   0.93547   0.72587   0.108151  
         H         H         0.61551   0.49622   0.76135   0.128066  
         H         H         0.05889   0.42563   0.74049   0.106507  
         H         H         0.50238   0.11500   0.73763   0.128008  
         H         H         0.57436   0.63355   0.74756   0.106380  
         H         H         0.12056   0.61033   0.77340   0.128997  
         H         H         0.62945   0.05842   0.73237   0.107642  
         H         H         0.39001   0.50716   0.76264   0.128887  
         H         H         0.94254   0.57247   0.76569   0.109175  
         H         H         0.49064   0.88011   0.74361   0.128395  
         H         H         0.43113   0.36914   0.77445   0.108410  
         N         N         0.59594   0.18948   0.74015   -0.231385           
         N         N         0.81029   0.40633   0.77420   -0.225427           
         N         N         0.59600   0.40256   0.75664   -0.226212           
         N         N         0.39989   0.80719   0.73970   -0.226991           
         N         N         0.19269   0.59149   0.76199   -0.230190           
         N         N         0.40841   0.59964   0.73269   -0.228893           
         C         C         0.86151   0.44435   0.77764   0.213070  
         C         C         0.37452   0.87304   0.73093   -0.184423           
         C         C         0.55938   0.41724   0.76078   0.211662  
         C         C         0.12411   0.50071   0.74766   -0.184916           
         C         C         0.58159   0.13813   0.74063   0.212639  
         C         C         0.49904   0.62164   0.74181   -0.182401           
         C         C         0.14136   0.55384   0.75890   0.214778  
         C         C         0.61811   0.12165   0.74176   -0.181050           
         C         C         0.44568   0.58542   0.74122   0.214395  
         C         C         0.87843   0.49735   0.77661   -0.182642           
         C         C         0.41180   0.85747   0.73391   0.212640  
         C         C         0.50636   0.38135   0.76656   -0.184151           
         C         C         0.98409   0.44691   0.76206   -0.190167           
         C         C         0.55480   0.53721   0.75834   -0.189907           
         C         C         0.45973   0.01318   0.73041   -0.187827           
         C         C         0.01758   0.55083   0.75798   -0.187126           
         C         C         0.45081   0.46570   0.76892   -0.190038           
         C         C         0.53195   0.98149   0.72984   -0.187665           
         H         H         0.97073   0.40657   0.76355   0.109950  
         H         H         0.59527   0.56530   0.75762   0.111581  
         H         H         0.43166   0.02545   0.72391   0.110926  
         H         H         0.03095   0.59102   0.75191   0.110068  
         H         H         0.41088   0.43793   0.77676   0.112585  
         H         H         0.55945   0.96889   0.72786   0.112289  
         C         C         0.76970   0.41271   0.76472   0.115121  
         C         C         0.58776   0.35502   0.75072   0.112455  
         C         C         0.64338   0.22982   0.73782   0.113142  
         C         C         0.23305   0.58522   0.76095   0.116071  
         C         C         0.41473   0.64636   0.72469   0.114987  
         C         C         0.35333   0.76628   0.73820   0.117877  
         C         C         0.28210   0.62516   0.75032   -0.246428           
         C         C         0.37455   0.65512   0.73408   -0.249475           
         C         C         0.34486   0.71745   0.74306   -0.246207           
         C         C         0.71957   0.37254   0.75424   -0.247302           
         C         C         0.62700   0.34456   0.74796   -0.246986           
         C         C         0.65366   0.27952   0.73951   -0.246898           
         C         C         0.32266   0.61353   0.74163   0.357754  
         C         C         0.38663   0.70771   0.73792   0.360355  
         C         C         0.29217   0.67677   0.74638   0.355895  
         C         C         0.67978   0.38582   0.75058   0.353227  
         C         C         0.61262   0.29094   0.74169   0.358160  
         C         C         0.70775   0.32007   0.74903   0.359906  
         O         O         0.25632   0.68666   0.74629   -0.482034           
         O         O         0.31245   0.56780   0.73999   -0.477611           
         O         O         0.43238   0.74371   0.73530   -0.482050           
         O         O         0.74315   0.30930   0.75414   -0.478818           
         O         O         0.69166   0.43220   0.75391   -0.475116           
         O         O         0.56587   0.25605   0.73833   -0.476689           
         H         H         0.56834   0.20050   0.73913   0.275486  
         H         H         0.77638   0.45114   0.76431   0.101335  
         H         H         0.33411   0.84565   0.73282   0.121538  
         H         H         0.79910   0.36773   0.76577   0.275598  
         H         H         0.54878   0.32321   0.74852   0.099649  
         H         H         0.15107   0.48741   0.74515   0.123312  
         H         H         0.63539   0.42943   0.75811   0.273245  
         H         H         0.67533   0.22328   0.73535   0.101073  
         H         H         0.51242   0.66190   0.73482   0.118081  
         H         H         0.42872   0.79767   0.74515   0.274942  
         H         H         0.22577   0.54676   0.76760   0.098936  
         H         H         0.65880   0.14904   0.74501   0.117466  
         H         H         0.20287   0.62951   0.75279   0.273511  
         H         H         0.45206   0.67846   0.70820   0.102026  
         H         H         0.85220   0.51105   0.78544   0.121078  
         H         H         0.36992   0.57264   0.74133   0.272426  
         H         H         0.32089   0.77219   0.73263   0.097831  
         H         H         0.49406   0.34136   0.77042   0.119367 

