
##########################################################################
#               Crystallographic Information Format file
#               Produced by PyCifRW module
#
#  This is a CIF file.  CIF has been adopted by the International
#  Union of Crystallography as the standard for data archiving and
#  transmission.
#
#  For information on this file format, follow the CIF links at
#  http://www.iucr.org
##########################################################################

data_image0

_cell_length_a                          28.4859
_cell_length_b                          27.4723
_cell_length_c                          7.82308
_cell_angle_alpha                       127.322
_cell_angle_beta                        69.4831
_cell_angle_gamma                       120.144
_symmetry_space_group_name_H-M          'P 1'
_space_group_name_Hall                  'P 1'
loop_
  _atom_site_type_symbol
  _atom_site_label
  _atom_site_fract_x
  _atom_site_fract_y
  _atom_site_fract_z
  _atom_site_charge
         C         C         0.42372   0.44098   0.24751   -0.234355           
         C         C         0.47014   0.49748   0.26255   0.077741  
         H         H         0.42689   0.40080   0.23266   0.126048  
         N         N         0.68212   0.52329   0.22239   -0.314884           
         C         C         0.37305   0.43813   0.25550   0.170603  
         C         C         0.05729   0.48788   0.26110   -0.182083           
         C         C         0.00405   0.47643   0.24900   0.067589  
         H         H         0.09256   0.53071   0.26676   0.137347  
         N         N         0.95313   0.64846   0.24992   -0.312045           
         C         C         0.06589   0.44174   0.25838   0.143020  
         C         C         0.01590   0.07486   0.24484   -0.238198           
         C         C         0.02194   0.02553   0.23672   0.078670  
         H         H         0.97614   0.07329   0.25651   0.125441  
         N         N         0.84124   0.81182   0.27583   -0.362079           
         C         C         0.06256   0.12587   0.23454   0.174675  
         C         C         0.87394   0.91552   0.27871   -0.135530           
         C         C         0.92046   0.96605   0.26852   -0.149618           
         H         H         0.83363   0.91218   0.28673   0.136442  
         N         N         0.07079   0.18040   0.24119   -0.323214           
         C         C         0.87975   0.86621   0.27117   0.158057  
         C         C         0.02896   0.62943   0.26945   -0.183950           
         C         C         0.03647   0.58337   0.26849   -0.116531           
         H         H         0.06304   0.67384   0.28040   0.129071  
         N         N         0.11357   0.44249   0.26419   -0.353457           
         C         C         0.97553   0.61607   0.25368   0.191742  
         C         C         0.58245   0.45353   0.21822   -0.130458           
         C         C         0.53221   0.45197   0.23286   -0.144481           
         H         H         0.58692   0.41412   0.20387   0.135665  
         N         N         0.32154   0.39145   0.24261   -0.317493           
         C         C         0.62909   0.50938   0.22863   0.157442  
         C         C         0.28602   0.41476   0.25701   0.335559  
         C         C         0.76658   0.62126   0.24932   -0.082710           
         C         C         0.09961   0.38638   0.25599   0.340769  
         C         C         0.86134   0.63648   0.25062   -0.225287           
         C         C         0.12658   0.21667   0.23402   0.338576  
         C         C         0.84770   0.72042   0.25415   -0.224107           
         C         C         0.80216   0.60108   0.27175   0.353528  
         C         C         0.88421   0.69703   0.25029   0.330811  
         C         C         0.78896   0.68188   0.24426   0.346213  
         O         O         0.75821   0.69766   0.22038   -0.403073           
         O         O         0.78239   0.55899   0.32169   -0.350751           
         O         O         0.93611   0.73007   0.24823   -0.484678           
         H         H         0.07749   0.59303   0.28009   0.116698  
         H         H         0.91566   0.00293   0.26911   0.102406  
         H         H         0.49654   0.40983   0.23023   0.110454  
         H         H         0.30432   0.34937   0.25038   0.306802  
         H         H         0.04542   0.19884   0.25125   0.297869  
         H         H         0.96745   0.69282   0.25848   0.297673  
         C         C         0.57128   0.56011   0.26937   -0.236827           
         C         C         0.52478   0.50386   0.25588   0.078905  
         H         H         0.56810   0.60062   0.28649   0.128011  
         N         N         0.31307   0.47506   0.27667   -0.315746           
         C         C         0.62206   0.56208   0.25548   0.170433  
         C         C         0.93945   0.51135   0.23864   -0.181205           
         C         C         0.99275   0.52328   0.25213   0.067344  
         H         H         0.90441   0.46808   0.23061   0.136673  
         N         N         0.04272   0.35043   0.25064   -0.316352           
         C         C         0.93047   0.55726   0.24172   0.145542  
         C         C         0.98042   0.92163   0.24312   -0.234857           
         C         C         0.97450   0.97080   0.24976   0.074052  
         H         H         0.02014   0.92305   0.23130   0.127814  
         N         N         0.15489   0.18595   0.21816   -0.359086           
         C         C         0.93366   0.87105   0.25555   0.173194  
         C         C         0.12249   0.08124   0.20894   -0.135136           
         C         C         0.07605   0.03039   0.21761   -0.148533           
         H         H         0.16284   0.08455   0.20015   0.135762  
         N         N         0.92521   0.81690   0.25179   -0.325406           
         C         C         0.11653   0.13096   0.21939   0.156391  
         C         C         0.96725   0.37034   0.23280   -0.186308           
         C         C         0.96007   0.41666   0.23419   -0.114886           
         H         H         0.93293   0.32611   0.22232   0.129093  
         N         N         0.88261   0.55599   0.23504   -0.353487           
         C         C         0.02058   0.38325   0.24774   0.191880  
         C         C         0.41250   0.54652   0.29158   -0.128469           
         C         C         0.46265   0.54902   0.28343   -0.141883           
         H         H         0.40803   0.58569   0.30435   0.135520  
         N         N         0.67373   0.60819   0.26487   -0.319474           
         C         C         0.36597   0.49007   0.27727   0.159723  
         C         C         0.70934   0.58380   0.24367   0.329092  
         C         C         0.22888   0.37685   0.24953   -0.092598           
         C         C         0.89619   0.61204   0.24364   0.339303  
         C         C         0.13430   0.36176   0.24905   -0.231471           
         C         C         0.86935   0.78118   0.26174   0.338454  
         C         C         0.14800   0.27791   0.24541   -0.224146           
         C         C         0.19334   0.39640   0.22464   0.350323  
         C         C         0.11138   0.30122   0.24909   0.329224  
         C         C         0.20660   0.31698   0.25850   0.345741  
         O         O         0.23715   0.30196   0.28746   -0.408302           
         O         O         0.21291   0.43754   0.17011   -0.352047           
         O         O         0.05946   0.26814   0.25084   -0.486939           
         H         H         0.91906   0.40748   0.22442   0.117268  
         H         H         0.08095   0.99327   0.21528   0.101024  
         H         H         0.49825   0.59181   0.29037   0.107378  
         H         H         0.69072   0.65059   0.25925   0.307051  
         H         H         0.95053   0.79861   0.24279   0.299060  
         H         H         0.02808   0.30613   0.24271   0.299907  
         C         C         0.42828   0.44000   0.73908   -0.240355           
         C         C         0.47472   0.49712   0.75898   0.079437  
         H         H         0.43158   0.39874   0.71653   0.130190  
         N         N         0.68684   0.52527   0.72932   -0.317523           
         C         C         0.37754   0.43786   0.75098   0.170811  
         C         C         0.06068   0.48889   0.76141   -0.181827           
         C         C         0.00735   0.47720   0.74925   0.067434  
         H         H         0.09585   0.53175   0.76696   0.137828  
         N         N         0.95731   0.65003   0.75113   -0.315270           
         C         C         0.06953   0.44303   0.75911   0.145081  
         C         C         0.01914   0.07578   0.74227   -0.235130           
         C         C         0.02514   0.02651   0.73475   0.071129  
         H         H         0.97939   0.07406   0.75285   0.127200  
         N         N         0.84495   0.81256   0.77382   -0.356092           
         C         C         0.06586   0.12688   0.73276   0.175610  
         C         C         0.87724   0.91627   0.77744   -0.132880           
         C         C         0.92362   0.96684   0.76685   -0.151870           
         H         H         0.83684   0.91280   0.78601   0.136575  
         N         N         0.07427   0.18149   0.73934   -0.326136           
         C         C         0.88329   0.86702   0.76942   0.152094  
         C         C         0.03277   0.63050   0.77087   -0.184365           
         C         C         0.03997   0.58415   0.76929   -0.116951           
         H         H         0.06701   0.67498   0.78307   0.129023  
         N         N         0.11734   0.44413   0.76531   -0.352701           
         C         C         0.97950   0.61733   0.75444   0.190555  
         C         C         0.58725   0.45504   0.72469   -0.130166           
         C         C         0.53694   0.45288   0.73661   -0.145651           
         H         H         0.59183   0.41662   0.71612   0.135905  
         N         N         0.32588   0.39112   0.73633   -0.320782           
         C         C         0.63383   0.51047   0.73152   0.160195  
         C         C         0.29041   0.41570   0.75736   0.329373  
         C         C         0.77099   0.62284   0.75086   -0.091869           
         C         C         0.10367   0.38810   0.75696   0.337823  
         C         C         0.86572   0.63828   0.75125   -0.231084           
         C         C         0.13013   0.21764   0.73216   0.338706  
         C         C         0.85179   0.72150   0.75228   -0.223447           
         C         C         0.80672   0.60358   0.77599   0.348978  
         C         C         0.88851   0.69855   0.74987   0.329579  
         C         C         0.79308   0.68264   0.74171   0.342735  
         O         O         0.76225   0.69769   0.71458   -0.404990           
         O         O         0.78739   0.56259   0.83091   -0.350923           
         O         O         0.94044   0.73166   0.74794   -0.487599           
         H         H         0.08089   0.59359   0.78101   0.117613  
         H         H         0.91865   0.00364   0.76761   0.105179  
         H         H         0.50130   0.41145   0.73892   0.110597  
         H         H         0.30868   0.34870   0.74186   0.307674  
         H         H         0.04895   0.19994   0.74925   0.299102  
         H         H         0.97189   0.69431   0.75904   0.299594  
         C         C         0.57588   0.55882   0.75828   -0.235655           
         C         C         0.52941   0.50349   0.75172   0.077883  
         H         H         0.57274   0.59772   0.76511   0.126237  
         N         N         0.31771   0.47664   0.78192   -0.315048           
         C         C         0.62666   0.56172   0.74933   0.171947  
         C         C         0.94291   0.51245   0.73932   -0.181486           
         C         C         0.99609   0.52410   0.75261   0.067900  
         H         H         0.90773   0.46934   0.73180   0.136904  
         N         N         0.04670   0.35186   0.75132   -0.311197           
         C         C         0.93427   0.55864   0.74263   0.143047  
         C         C         0.98389   0.92269   0.74096   -0.237589           
         C         C         0.97775   0.97175   0.74772   0.079177  
         H         H         0.02371   0.92432   0.72892   0.127583  
         N         N         0.15824   0.18683   0.71669   -0.358853           
         C         C         0.93730   0.87210   0.75388   0.174769  
         C         C         0.12568   0.08228   0.70826   -0.134794           
         C         C         0.07920   0.03139   0.71642   -0.148872           
         H         H         0.16601   0.08566   0.70007   0.136287  
         N         N         0.92908   0.81810   0.75049   -0.323568           
         C         C         0.11977   0.13192   0.71815   0.154919  
         C         C         0.97093   0.37115   0.73267   -0.182828           
         C         C         0.96351   0.41731   0.73397   -0.117902           
         H         H         0.93677   0.32681   0.72194   0.128699  
         N         N         0.88658   0.55770   0.73612   -0.353009           
         C         C         0.02437   0.38435   0.74787   0.191711  
         C         C         0.41716   0.54771   0.79734   -0.132910           
         C         C         0.46727   0.54975   0.78705   -0.142002           
         H         H         0.41272   0.58771   0.81540   0.136106  
         N         N         0.67821   0.60774   0.75675   -0.314286           
         C         C         0.37061   0.49091   0.77969   0.159733  
         C         C         0.71385   0.58491   0.74431   0.336265  
         C         C         0.23315   0.37831   0.75053   -0.082894           
         C         C         0.90047   0.61384   0.74476   0.340169  
         C         C         0.13847   0.36349   0.74953   -0.224468           
         C         C         0.87326   0.78218   0.76007   0.336456  
         C         C         0.15186   0.27891   0.74309   -0.223772           
         C         C         0.19767   0.39887   0.72902   0.351701  
         C         C         0.11548   0.30263   0.74800   0.329896  
         C         C         0.21053   0.31760   0.75534   0.345868  
         O         O         0.24095   0.30179   0.78099   -0.403883           
         O         O         0.21749   0.44120   0.68007   -0.348595           
         O         O         0.06358   0.26955   0.74929   -0.484861           
         H         H         0.92246   0.40788   0.72352   0.117048  
         H         H         0.08406   0.99431   0.71434   0.101412  
         H         H         0.50285   0.59325   0.79935   0.110000  
         H         H         0.69528   0.64978   0.74880   0.303931  
         H         H         0.95450   0.80005   0.74221   0.298115  
         H         H         0.03233   0.30742   0.74238   0.297370 

