
##########################################################################
#               Crystallographic Information Format file
#               Produced by PyCifRW module
#
#  This is a CIF file.  CIF has been adopted by the International
#  Union of Crystallography as the standard for data archiving and
#  transmission.
#
#  For information on this file format, follow the CIF links at
#  http://www.iucr.org
##########################################################################

data_image0

_cell_length_a                          33.1659
_cell_length_b                          35.4643
_cell_length_c                          8.00578
_cell_angle_alpha                       90.5536
_cell_angle_beta                        90.2068
_cell_angle_gamma                       89.9834
_symmetry_space_group_name_H-M          'P 1'
_space_group_name_Hall                  'P 1'
loop_
  _atom_site_type_symbol
  _atom_site_label
  _atom_site_fract_x
  _atom_site_fract_y
  _atom_site_fract_z
  _atom_site_charge
         C         C         0.54524   0.53440   0.88607   0.035905  
         C         C         0.48168   0.56835   0.85506   -0.133573           
         C         C         0.41632   0.53591   0.91472   0.022140  
         C         C         0.39172   0.57068   0.91602   0.064906  
         C         C         0.35360   0.57036   0.83764   -0.125908           
         C         C         0.32886   0.60195   0.83989   -0.143963           
         C         C         0.34086   0.63532   0.92284   0.198888  
         C         C         0.37919   0.63621   -0.00057  -0.169391           
         C         C         0.40387   0.60443   -0.00377  -0.123257           
         H         H         0.46567   0.59423   0.82671   0.105524  
         H         H         0.34408   0.54528   0.76877   0.109241  
         H         H         0.29977   0.60180   0.77662   0.128577  
         H         H         0.38951   0.66167   0.06339   0.116134  
         H         H         0.43265   0.60520   0.06157   0.104499  
         C         C         0.22071   0.77934   0.01733   -0.116626           
         C         C         0.21487   0.74370   0.94313   0.122666  
         C         C         0.24361   0.71529   0.94805   0.145985  
         F         F         0.17948   0.73541   0.86628   -0.106463           
         F         F         0.23247   0.68178   0.88278   -0.095097           
         C         C         0.19092   0.80943   -0.00122  0.101177  
         N         N         0.18980   0.83715   0.10445   -0.273782           
         H         H         0.82693   0.18698   0.85530   0.075862  
         C         C         0.45814   0.46537   0.90653   0.035902  
         C         C         0.52138   0.43072   0.87781   -0.134306           
         C         C         0.58732   0.46437   0.91239   0.024033  
         C         C         0.61215   0.42982   0.91631   0.064457  
         C         C         0.64912   0.42957   0.83019   -0.127135           
         C         C         0.67385   0.39804   0.82859   -0.143072           
         C         C         0.66288   0.36517   0.91428   0.193610  
         C         C         0.62597   0.36502   0.00101   -0.164383           
         C         C         0.60139   0.39685   0.00291   -0.122123           
         H         H         0.53704   0.40422   0.85644   0.105724  
         H         H         0.65763   0.45412   0.75801   0.107512  
         H         H         0.70195   0.39775   0.75910   0.125074  
         H         H         0.61667   0.34017   0.06953   0.115880  
         H         H         0.57402   0.39670   0.07727   0.105148  
         C         C         0.77659   0.21562   0.97510   -0.113174           
         C         C         0.78422   0.25076   0.90160   0.120580  
         C         C         0.75678   0.28031   0.90635   0.148554  
         F         F         0.82011   0.25701   0.82516   -0.107804           
         F         F         0.76773   0.31263   0.83311   -0.094756           
         C         C         0.80660   0.18561   0.96286   0.103040  
         N         N         0.80765   0.15937   0.07342   -0.276891           
         H         H         0.17157   0.80734   0.88750   0.075126  
         C         C         0.95781   0.03483   0.09520   0.036570  
         C         C         0.02108   0.06939   0.12536   -0.136501           
         C         C         0.08688   0.03622   0.07919   0.024388  
         C         C         0.11176   0.07073   0.07877   0.064534  
         C         C         0.14923   0.07030   0.16247   -0.126343           
         C         C         0.17460   0.10137   0.16181   -0.143693           
         C         C         0.16373   0.13436   0.07627   0.196661  
         C         C         0.12594   0.13552   0.99557   -0.166757           
         C         C         0.10072   0.10414   -0.00398  -0.122292           
         H         H         0.03681   0.09572   0.14983   0.104958  
         H         H         0.15769   0.04561   0.23411   0.107781  
         H         H         0.20320   0.10119   0.22855   0.126331  
         H         H         0.11646   0.16089   0.93095   0.116786  
         H         H         0.07251   0.10505   0.92655   0.105756  
         C         C         0.28259   0.27950   0.01846   -0.117638           
         C         C         0.28925   0.24352   0.08558   0.122530  
         C         C         0.26098   0.21463   0.07521   0.143513  
         F         F         0.32529   0.23620   0.15894   -0.105586           
         F         F         0.27078   0.18106   0.14158   -0.094300           
         C         C         0.31264   0.30942   0.03998   0.100567  
         N         N         0.31304   0.33726   0.93720   -0.276396           
         H         H         0.66893   0.69224   0.11570   0.075367  
         C         C         0.04517   0.96585   0.09472   0.035021  
         C         C         0.98198   0.93142   0.12554   -0.133899           
         C         C         0.91624   0.96430   0.07822   0.024100  
         C         C         0.89111   0.92994   0.08008   0.063135  
         C         C         0.85416   0.93141   0.16620   -0.124680           
         C         C         0.82867   0.90047   0.17193   -0.145611           
         C         C         0.83870   0.86669   0.08890   0.197702  
         C         C         0.87573   0.86465   0.00336   -0.168352           
         C         C         0.90123   0.89584   -0.00143  -0.123439           
         H         H         0.96621   0.90531   0.15158   0.105586  
         H         H         0.84633   0.95689   0.23529   0.107020  
         H         H         0.80071   0.90139   0.24235   0.126295  
         H         H         0.88450   0.83875   0.93918   0.116623  
         H         H         0.92887   0.89425   0.92614   0.105639  
         C         C         0.72068   0.72030   0.00667   -0.115875           
         C         C         0.71281   0.75563   0.08134   0.119852  
         C         C         0.73990   0.78550   0.07510   0.146307  
         F         F         0.67685   0.76183   0.15779   -0.106462           
         F         F         0.72735   0.81917   0.13390   -0.095296           
         C         C         0.69080   0.69002   0.01358   0.101173  
         N         N         0.69154   0.66268   0.90579   -0.279382           
         H         H         0.33314   0.30667   0.14703   0.078484  
         C         C         0.95891   0.96467   0.09592   0.036746  
         C         C         0.02318   0.93198   0.12434   -0.134455           
         C         C         0.08782   0.96660   0.07685   0.024520  
         C         C         0.11315   0.93239   0.07536   0.064382  
         C         C         0.15013   0.93282   0.16249   -0.125969           
         C         C         0.17454   0.90109   0.16865   -0.143555           
         C         C         0.16327   0.86753   0.08556   0.197489  
         C         C         0.12669   0.86693   0.99566   -0.167504           
         C         C         0.10233   0.89885   0.99043   -0.121958           
         H         H         0.03983   0.90621   0.14806   0.104075  
         H         H         0.15881   0.95801   0.23231   0.107122  
         H         H         0.20255   0.90118   0.23970   0.126571  
         H         H         0.11739   0.84150   0.92893   0.115745  
         H         H         0.07486   0.89826   0.91593   0.105707  
         C         C         0.28171   0.72097   0.02370   -0.114055           
         C         C         0.28746   0.75658   0.10010   0.120535  
         C         C         0.25796   0.78445   0.09992   0.145288  
         F         F         0.32317   0.76540   0.17480   -0.107074           
         F         F         0.26683   0.81739   0.17533   -0.092585           
         C         C         0.31284   0.69173   0.02904   0.104290  
         N         N         0.31292   0.66494   0.91841   -0.281997           
         H         H         0.66888   0.30495   0.10824   0.075231  
         C         C         0.04418   0.03600   0.09598   0.036851  
         C         C         0.97986   0.06881   0.12534   -0.134291           
         C         C         0.91518   0.03388   0.07572   0.025262  
         C         C         0.88921   0.06761   0.07111   0.065088  
         C         C         0.85135   0.06634   0.15042   -0.123983           
         C         C         0.82545   0.09700   0.14866   -0.144575           
         C         C         0.83606   0.13024   0.06525   0.195064  
         C         C         0.87391   0.13203   0.98640   -0.166800           
         C         C         0.89978   0.10114   0.98888   -0.125071           
         H         H         0.96332   0.09470   0.15004   0.105325  
         H         H         0.84300   0.04134   0.21988   0.106946  
         H         H         0.79671   0.09638   0.21356   0.126661  
         H         H         0.88302   0.15756   0.92241   0.115990  
         H         H         0.92818   0.10244   0.92187   0.105305  
         C         C         0.71947   0.27691   0.98851   -0.117755           
         C         C         0.71202   0.24178   0.06261   0.122694  
         C         C         0.73904   0.21187   0.05583   0.145207  
         F         F         0.67654   0.23621   0.14194   -0.106908           
         F         F         0.72737   0.17911   0.12482   -0.096576           
         C         C         0.68998   0.30736   0.00385   0.101614  
         N         N         0.69021   0.33518   0.90068   -0.278292           
         H         H         0.33458   0.69394   0.13224   0.075703  
         C         C         0.54452   0.46437   0.89920   0.036357  
         C         C         0.48019   0.43121   0.88109   -0.133368           
         C         C         0.41557   0.46633   0.92802   0.023577  
         C         C         0.39033   0.43219   0.93944   0.066368  
         C         C         0.35232   0.43177   0.86030   -0.127575           
         C         C         0.32788   0.40007   0.86419   -0.142422           
         C         C         0.34002   0.36743   0.94942   0.194036  
         C         C         0.37769   0.36766   0.03148   -0.165932           
         C         C         0.40210   0.39957   0.02657   -0.122442           
         H         H         0.46364   0.40511   0.86187   0.105583  
         H         H         0.34281   0.45609   0.78849   0.109523  
         H         H         0.29912   0.39922   0.79865   0.126145  
         H         H         0.38781   0.34303   0.09996   0.116651  
         H         H         0.43043   0.39985   0.09516   0.102933  
         C         C         0.22370   0.21995   0.99294   -0.114837           
         C         C         0.21737   0.25567   0.92198   0.120323  
         C         C         0.24558   0.28462   0.93430   0.148791  
         F         F         0.18198   0.26280   0.84191   -0.106060           
         F         F         0.23621   0.31808   0.86653   -0.095414           
         C         C         0.19305   0.19046   0.97686   0.101991  
         N         N         0.19193   0.16363   0.08478   -0.277453           
         H         H         0.82783   0.80968   0.88113   0.072946  
         C         C         0.45891   0.53541   0.89314   0.035792  
         C         C         0.52288   0.56786   0.85150   -0.135845           
         C         C         0.58800   0.53393   0.90200   0.023104  
         C         C         0.61309   0.56831   0.90361   0.064690  
         C         C         0.65086   0.56807   0.82336   -0.126099           
         C         C         0.67558   0.59967   0.82583   -0.142989           
         C         C         0.66391   0.63285   0.91082   0.195506  
         C         C         0.62605   0.63352   0.99003   -0.165597           
         C         C         0.60143   0.60178   0.98697   -0.122284           
         H         H         0.53918   0.59336   0.82008   0.104768  
         H         H         0.66021   0.54307   0.75377   0.107819  
         H         H         0.70435   0.59972   0.76108   0.126559  
         H         H         0.61605   0.65877   0.05616   0.116015  
         H         H         0.57312   0.60232   0.05502   0.105973  
         C         C         0.77827   0.78108   0.00275   -0.113668           
         C         C         0.78671   0.74548   0.93271   0.119292  
         C         C         0.75879   0.71628   0.93039   0.147125  
         F         F         0.82386   0.73907   0.86667   -0.107443           
         F         F         0.76982   0.68359   0.85799   -0.093935           
         C         C         0.80824   0.81116   0.99104   0.105738  
         N         N         0.81030   0.83755   0.10271   -0.277847           
         H         H         0.17260   0.19264   0.86938   0.076636  
         C         C         0.39639   0.50149   0.93544   -0.181251           
         C         C         0.52332   0.49965   0.89627   0.004531  
         H         H         0.36426   0.50214   0.96162   0.102902  
         C         C         0.60738   0.49911   0.91797   -0.184497           
         C         C         0.48008   0.50016   0.89990   0.006117  
         H         H         0.63981   0.49908   0.93820   0.104315  
         C         C         0.10698   0.00160   0.06533   -0.185337           
         C         C         0.97991   0.00005   0.09336   0.004470  
         H         H         0.13929   0.00193   0.04287   0.104690  
         C         C         0.89618   0.99877   0.06274   -0.185147           
         C         C         0.02313   0.00065   0.09334   0.004673  
         H         H         0.86394   0.99824   0.03798   0.103659  
         C         C         0.54033   0.53544   0.39305   0.034594  
         C         C         0.47668   0.56900   0.35821   -0.135103           
         C         C         0.41130   0.53549   0.40143   0.026076  
         C         C         0.38661   0.57014   0.40246   0.065492  
         C         C         0.35002   0.57096   0.31281   -0.127119           
         C         C         0.32534   0.60260   0.31680   -0.138814           
         C         C         0.33591   0.63468   0.41239   0.192387  
         C         C         0.37266   0.63418   0.50148   -0.163311           
         C         C         0.39730   0.60248   0.49639   -0.121059           
         H         H         0.46052   0.59491   0.33171   0.105089  
         H         H         0.34172   0.54686   0.23499   0.107239  
         H         H         0.29740   0.60348   0.24544   0.125437  
         H         H         0.38162   0.65820   0.57850   0.114544  
         H         H         0.42468   0.60190   0.57137   0.103127  
         C         C         0.21791   0.78028   0.51124   -0.116826           
         C         C         0.21068   0.74441   0.44083   0.121717  
         C         C         0.23940   0.71585   0.43899   0.142545  
         F         F         0.17374   0.73711   0.37480   -0.106556           
         F         F         0.22831   0.68208   0.37520   -0.093789           
         C         C         0.18746   0.80981   0.49873   0.099070  
         N         N         0.18843   0.83889   0.59715   -0.279720           
         H         H         0.82707   0.18931   0.35035   0.074891  
         C         C         0.45371   0.46543   0.39970   0.034800  
         C         C         0.51759   0.43142   0.37642   -0.133641           
         C         C         0.58327   0.46562   0.41383   0.025396  
         C         C         0.60930   0.43172   0.41270   0.062911  
         C         C         0.64650   0.43339   0.32793   -0.125680           
         C         C         0.67260   0.40282   0.32216   -0.146017           
         C         C         0.66290   0.36894   0.40269   0.196414  
         C         C         0.62578   0.36676   0.48708   -0.169089           
         C         C         0.59981   0.39766   0.49308   -0.123147           
         H         H         0.53349   0.40503   0.35559   0.105647  
         H         H         0.65409   0.45869   0.25907   0.106699  
         H         H         0.70067   0.40414   0.25267   0.126174  
         H         H         0.61727   0.34078   0.54903   0.116624  
         H         H         0.57224   0.39575   0.56561   0.106141  
         C         C         0.77711   0.21935   0.46560   -0.114888           
         C         C         0.78507   0.25361   0.38500   0.120946  
         C         C         0.75871   0.28413   0.39120   0.148063  
         F         F         0.82020   0.25721   0.30010   -0.105667           
         F         F         0.76978   0.31627   0.31622   -0.095025           
         C         C         0.80626   0.18852   0.45630   0.100835  
         N         N         0.80630   0.16234   0.56745   -0.276185           
         H         H         0.16513   0.80578   0.39878   0.074514  
         C         C         0.95430   0.03561   0.59457   0.036241  
         C         C         0.01783   0.06980   0.62325   -0.133183           
         C         C         0.08325   0.03630   0.57440   0.026335  
         C         C         0.10850   0.07054   0.57470   0.062825  
         C         C         0.14580   0.06950   0.65943   -0.126219           
         C         C         0.17163   0.10021   0.66065   -0.145583           
         C         C         0.16151   0.13327   0.57464   0.197345  
         C         C         0.12392   0.13508   0.49254   -0.170921           
         C         C         0.09807   0.10413   0.49226   -0.121007           
         H         H         0.03378   0.09602   0.64787   0.105251  
         H         H         0.15370   0.04455   0.73033   0.107662  
         H         H         0.19998   0.09971   0.72922   0.126883  
         H         H         0.11509   0.16064   0.42784   0.116866  
         H         H         0.06991   0.10545   0.42257   0.104956  
         C         C         0.27697   0.28023   0.52066   -0.115970           
         C         C         0.28579   0.24417   0.58412   0.121514  
         C         C         0.25996   0.21351   0.56367   0.143124  
         F         F         0.32118   0.23822   0.66597   -0.106972           
         F         F         0.27264   0.17949   0.61692   -0.094995           
         C         C         0.30571   0.31144   0.54019   0.102627  
         N         N         0.30686   0.33744   0.42841   -0.275846           
         H         H         0.66758   0.69199   0.62366   0.074441  
         C         C         0.04135   0.96613   0.59040   0.034753  
         C         C         0.97801   0.93196   0.62207   -0.135232           
         C         C         0.91218   0.96537   0.58247   0.025759  
         C         C         0.88708   0.93102   0.58566   0.064610  
         C         C         0.85042   0.93195   0.67405   -0.126870           
         C         C         0.82526   0.90074   0.67883   -0.141631           
         C         C         0.83539   0.86727   0.59310   0.194389  
         C         C         0.87205   0.86592   0.50482   -0.164414           
         C         C         0.89715   0.89732   0.50078   -0.122103           
         H         H         0.96226   0.90575   0.64631   0.104964  
         H         H         0.84241   0.95727   0.74412   0.107482  
         H         H         0.79735   0.90120   0.74972   0.125834  
         H         H         0.88069   0.84055   0.43640   0.115833  
         H         H         0.92429   0.89640   0.42511   0.104975  
         C         C         0.71810   0.72037   0.50753   -0.114712           
         C         C         0.71120   0.75522   0.58832   0.120030  
         C         C         0.73998   0.78368   0.59615   0.147601  
         F         F         0.67476   0.76184   0.65919   -0.104984           
         F         F         0.73115   0.81526   0.68301   -0.092829           
         C         C         0.68817   0.69022   0.51687   0.102018  
         N         N         0.68776   0.66314   0.40782   -0.277077           
         H         H         0.32468   0.31122   0.65284   0.075138  
         C         C         0.95497   0.96542   0.59587   0.035434  
         C         C         0.01921   0.93232   0.61924   -0.131947           
         C         C         0.08401   0.96672   0.57174   0.025171  
         C         C         0.10964   0.93269   0.57074   0.065117  
         C         C         0.14707   0.93387   0.65445   -0.125538           
         C         C         0.17200   0.90249   0.66014   -0.141577           
         C         C         0.16084   0.86852   0.58057   0.195259  
         C         C         0.12373   0.86712   0.49448   -0.165973           
         C         C         0.09891   0.89871   0.48902   -0.122575           
         H         H         0.03573   0.90639   0.64117   0.104755  
         H         H         0.15585   0.95940   0.72158   0.107337  
         H         H         0.20045   0.90309   0.72811   0.126589  
         H         H         0.11438   0.84143   0.42994   0.115543  
         H         H         0.07119   0.89754   0.41640   0.104466  
         C         C         0.27848   0.72186   0.50601   -0.113612           
         C         C         0.28583   0.75800   0.57475   0.117195  
         C         C         0.25648   0.78592   0.58128   0.149531  
         F         F         0.32307   0.76729   0.63358   -0.106149           
         F         F         0.26678   0.81922   0.65018   -0.093333           
         C         C         0.30961   0.69273   0.51045   0.097579  
         N         N         0.30795   0.66427   0.40852   -0.280170           
         H         H         0.67541   0.31332   0.61154   0.073827  
         C         C         0.04063   0.03629   0.59292   0.034901  
         C         C         0.97661   0.06950   0.62339   -0.135719           
         C         C         0.91158   0.03497   0.57768   0.023557  
         C         C         0.88612   0.06908   0.57170   0.063415  
         C         C         0.84862   0.06903   0.65405   -0.123804           
         C         C         0.82326   0.10012   0.65006   -0.145488           
         C         C         0.83411   0.13265   0.56165   0.193864  
         C         C         0.87167   0.13320   0.47998   -0.165730           
         C         C         0.89693   0.10189   0.48432   -0.121979           
         H         H         0.96019   0.09549   0.64729   0.104980  
         H         H         0.84013   0.04466   0.72748   0.106984  
         H         H         0.79473   0.10028   0.71667   0.126744  
         H         H         0.88099   0.15805   0.41148   0.115676  
         H         H         0.92502   0.10228   0.41478   0.104790  
         C         C         0.72207   0.28212   0.47931   -0.117062           
         C         C         0.71397   0.24766   0.55818   0.122989  
         C         C         0.74017   0.21707   0.55127   0.146422  
         F         F         0.67874   0.24378   0.64177   -0.104560           
         F         F         0.72913   0.18481   0.62528   -0.094393           
         C         C         0.69344   0.31338   0.49681   0.104429  
         N         N         0.69080   0.33937   0.38538   -0.273182           
         H         H         0.33309   0.69672   0.60588   0.075844  
         C         C         0.54043   0.46523   0.39905   0.035734  
         C         C         0.47635   0.43149   0.37830   -0.136216           
         C         C         0.41087   0.46597   0.41360   0.025600  
         C         C         0.38544   0.43185   0.42366   0.063191  
         C         C         0.34774   0.43132   0.34145   -0.125293           
         C         C         0.32270   0.40004   0.34706   -0.145345           
         C         C         0.33391   0.36776   0.43715   0.195292  
         C         C         0.37137   0.36799   0.52069   -0.165859           
         C         C         0.39638   0.39951   0.51438   -0.124465           
         H         H         0.46015   0.40515   0.36065   0.104695  
         H         H         0.33895   0.45528   0.26575   0.106620  
         H         H         0.29423   0.39945   0.27931   0.126464  
         H         H         0.38095   0.34354   0.59164   0.116239  
         H         H         0.42446   0.39955   0.58485   0.105846  
         C         C         0.22230   0.21771   0.48396   -0.113234           
         C         C         0.21358   0.25355   0.41992   0.121085  
         C         C         0.23944   0.28417   0.43862   0.144273  
         F         F         0.17771   0.25907   0.34173   -0.105921           
         F         F         0.22640   0.31789   0.38332   -0.096045           
         C         C         0.19224   0.18766   0.46939   0.102916  
         N         N         0.19027   0.16216   0.58306   -0.278660           
         H         H         0.82753   0.80804   0.39366   0.074223  
         C         C         0.45406   0.53550   0.38815   0.033748  
         C         C         0.51789   0.56897   0.36072   -0.132291           
         C         C         0.58300   0.53532   0.41185   0.026419  
         C         C         0.60817   0.56969   0.41406   0.064978  
         C         C         0.64527   0.56919   0.32874   -0.126241           
         C         C         0.67052   0.60039   0.32906   -0.143464           
         C         C         0.66001   0.63347   0.41700   0.196232  
         C         C         0.62277   0.63452   0.50113   -0.167800           
         C         C         0.59756   0.60317   0.49975   -0.123091           
         H         H         0.53418   0.59488   0.33606   0.105775  
         H         H         0.65343   0.54439   0.25542   0.107960  
         H         H         0.69859   0.60025   0.25919   0.126674  
         H         H         0.61358   0.65990   0.56821   0.115566  
         H         H         0.56957   0.60418   0.56983   0.103140  
         C         C         0.77692   0.78022   0.51069   -0.117043           
         C         C         0.78324   0.74587   0.42515   0.120527  
         C         C         0.75549   0.71651   0.42568   0.146052  
         F         F         0.81828   0.74090   0.34126   -0.103038           
         F         F         0.76574   0.68386   0.34985   -0.093996           
         C         C         0.80686   0.81026   0.49990   0.099730  
         N         N         0.80742   0.83787   0.60645   -0.277163           
         H         H         0.17238   0.18869   0.35979   0.075692  
         C         C         0.39132   0.50099   0.41648   -0.186834           
         C         C         0.51879   0.50034   0.39766   0.004070  
         H         H         0.35888   0.50151   0.43544   0.107019  
         C         C         0.60270   0.50061   0.42566   -0.185520           
         C         C         0.47548   0.50042   0.39625   0.005691  
         H         H         0.63502   0.50081   0.44870   0.104582  
         C         C         0.10316   0.00168   0.55919   -0.184800           
         C         C         0.97618   0.00067   0.59232   0.005615  
         H         H         0.13540   0.00197   0.53551   0.103693  
         C         C         0.89221   -0.00004  0.56839   -0.186470           
         C         C         0.01942   0.00103   0.59041   0.005770  
         H         H         0.85982   -0.00042  0.54704   0.104647 

