
##########################################################################
#               Crystallographic Information Format file
#               Produced by PyCifRW module
#
#  This is a CIF file.  CIF has been adopted by the International
#  Union of Crystallography as the standard for data archiving and
#  transmission.
#
#  For information on this file format, follow the CIF links at
#  http://www.iucr.org
##########################################################################

data_image0

_cell_length_a                          41.9761
_cell_length_b                          45.7138
_cell_length_c                          8.10521
_cell_angle_alpha                       89.8665
_cell_angle_beta                        88.6932
_cell_angle_gamma                       90.0134
_symmetry_space_group_name_H-M          'P 1'
_space_group_name_Hall                  'P 1'
loop_
  _atom_site_type_symbol
  _atom_site_label
  _atom_site_fract_x
  _atom_site_fract_y
  _atom_site_fract_z
  _atom_site_charge
         C         C         0.53447   0.52719   0.96655   0.034347  
         C         C         0.48383   0.55244   0.93357   -0.133962           
         C         C         0.43252   0.52550   0.98057   0.025133  
         C         C         0.41235   0.55193   0.98065   0.061111  
         C         C         0.38311   0.55121   0.89887   -0.126797           
         C         C         0.36287   0.57521   0.89903   -0.148556           
         C         C         0.37086   0.60121   0.98102   0.198821  
         C         C         0.40032   0.60231   0.06103   -0.172176           
         C         C         0.42036   0.57808   0.06201   -0.120571           
         H         H         0.47085   0.57238   0.90702   0.103328  
         H         H         0.37689   0.53179   0.82936   0.106700  
         H         H         0.34058   0.57474   0.83339   0.119928  
         H         H         0.40738   0.62202   0.12575   0.109516  
         H         H         0.44216   0.57903   0.13170   0.104509  
         C         C         0.03470   0.02694   0.07024   0.036678  
         C         C         0.98425   0.05309   0.09978   -0.133823           
         C         C         0.93284   0.02700   0.05488   0.026178  
         C         C         0.91355   0.05397   0.04991   0.063292  
         C         C         0.92320   0.07909   0.96062   -0.123305           
         C         C         0.90438   0.10410   0.95712   -0.170246           
         C         C         0.87471   0.10494   0.04226   0.197720  
         C         C         0.86509   0.07996   0.13233   -0.149427           
         C         C         0.88395   0.05500   0.13501   -0.125681           
         H         H         0.97135   0.07324   0.12475   0.104550  
         H         H         0.94543   0.07854   0.88915   0.104187  
         H         H         0.91260   0.12289   0.88552   0.109073  
         H         H         0.84274   0.08103   0.20263   0.119397  
         H         H         0.87645   0.03628   0.20941   0.107350  
         C         C         0.17192   0.82664   0.96867   0.056056  
         C         C         0.16571   0.79884   0.90184   -0.124673           
         C         C         0.18786   0.77636   0.91276   -0.132039           
         C         C         0.21732   0.78123   0.98915   0.131964  
         C         C         0.22371   0.80933   0.05437   -0.125673           
         C         C         0.20135   0.83146   0.04482   -0.107619           
         C         C         0.23998   0.75860   0.00156   -0.104282           
         C         C         0.25960   0.73898   0.01419   -0.099650           
         C         C         0.28193   0.71609   0.02818   0.129412  
         C         C         0.30995   0.71979   0.11906   -0.132317           
         C         C         0.33149   0.69690   0.13334   -0.129491           
         C         C         0.32627   0.66993   0.05473   0.053175  
         C         C         0.29838   0.66631   0.96309   -0.105438           
         C         C         0.27650   0.68881   0.95091   -0.127207           
         H         H         0.14332   0.79503   0.83998   0.106362  
         H         H         0.18312   0.75495   0.86042   0.117617  
         H         H         0.24631   0.81300   0.11402   0.117999  
         H         H         0.20574   0.85297   0.09673   0.117178  
         H         H         0.31408   0.74051   0.18047   0.119344  
         H         H         0.35263   0.69975   0.20698   0.108842  
         H         H         0.29462   0.64544   0.90229   0.115023  
         H         H         0.25508   0.68605   0.87973   0.116610  
         C         C         0.14826   0.84988   0.96008   0.061219  
         N         N         0.15163   0.87367   0.04444   -0.302884           
         N         N         0.34867   0.62401   0.97134   -0.302540           
         C         C         0.34937   0.64632   0.06935   0.067746  
         H         H         0.87443   0.15229   0.84974   0.067975  
         H         H         0.63593   0.35094   0.18183   0.067406  
         C         C         0.46720   0.47171   0.97087   0.034732  
         C         C         0.51827   0.44632   0.94587   -0.137669           
         C         C         0.56926   0.47365   0.98579   0.026575  
         C         C         0.58965   0.44734   0.98815   0.060279  
         C         C         0.61895   0.44763   0.89972   -0.125580           
         C         C         0.63908   0.42354   0.89917   -0.149304           
         C         C         0.63103   0.39799   0.98807   0.197330  
         C         C         0.60177   0.39751   0.07703   -0.170873           
         C         C         0.58172   0.42176   0.07749   -0.121809           
         H         H         0.53152   0.42619   0.92573   0.103519  
         H         H         0.62525   0.46667   0.82515   0.106002  
         H         H         0.66128   0.42358   0.82740   0.119935  
         H         H         0.59491   0.37830   0.14884   0.110148  
         H         H         0.55998   0.42135   0.15302   0.104391  
         C         C         0.96636   0.97263   0.06726   0.035210  
         C         C         0.01657   0.94636   0.09626   -0.135469           
         C         C         0.06856   0.97279   0.05793   0.025744  
         C         C         0.08845   0.94614   0.05426   0.062991  
         C         C         0.08030   0.92081   0.96544   -0.122389           
         C         C         0.10015   0.89648   0.96012   -0.167700           
         C         C         0.12945   0.89654   0.04188   0.194107  
         C         C         0.13768   0.92180   0.13051   -0.144829           
         C         C         0.11765   0.94597   0.13671   -0.128149           
         H         H         0.02912   0.92604   0.11897   0.104921  
         H         H         0.05867   0.92084   0.89403   0.104206  
         H         H         0.09324   0.87772   0.88689   0.109318  
         H         H         0.15995   0.92166   0.19654   0.119039  
         H         H         0.12408   0.96478   0.21095   0.107100  
         C         C         0.83283   0.17442   0.95655   0.052339  
         C         C         0.83890   0.20111   0.87429   -0.129493           
         C         C         0.81741   0.22420   0.88569   -0.131791           
         C         C         0.78861   0.22101   0.97768   0.132581  
         C         C         0.78231   0.19397   0.05790   -0.127140           
         C         C         0.80407   0.17128   0.04820   -0.103193           
         C         C         0.76620   0.24394   0.99149   -0.105016           
         C         C         0.74592   0.26303   0.00751   -0.098981           
         C         C         0.72265   0.28518   0.02380   0.129493  
         C         C         0.69506   0.28089   0.12399   -0.131713           
         C         C         0.67257   0.30307   0.14148   -0.127329           
         C         C         0.67644   0.32982   0.05702   0.055014  
         C         C         0.70379   0.33393   0.95512   -0.109164           
         C         C         0.72661   0.31222   0.93975   -0.125755           
         H         H         0.86073   0.20363   0.80057   0.108338  
         H         H         0.82224   0.24473   0.82196   0.116738  
         H         H         0.76025   0.19153   0.12950   0.117584  
         H         H         0.79956   0.15069   0.11204   0.113508  
         H         H         0.69201   0.26033   0.19020   0.117181  
         H         H         0.65174   0.29975   0.22200   0.107691  
         H         H         0.70632   0.35463   0.88981   0.116323  
         H         H         0.74776   0.31547   0.86213   0.115370  
         C         C         0.85582   0.15052   0.94695   0.068318  
         N         N         0.85351   0.12861   0.04820   -0.305840           
         N         N         0.65303   0.37503   0.97549   -0.297914           
         C         C         0.65282   0.35305   0.07650   0.066444  
         H         H         0.12799   0.84576   0.87988   0.067738  
         H         H         0.36668   0.64864   0.16835   0.067441  
         C         C         0.53556   0.47280   0.97038   0.034168  
         C         C         0.48569   0.44579   0.94578   -0.133553           
         C         C         0.43335   0.47151   0.98831   0.023980  
         C         C         0.41391   0.44460   -0.00358  0.062126  
         C         C         0.38450   0.44403   0.91612   -0.126071           
         C         C         0.36539   0.41928   0.91986   -0.147873           
         C         C         0.37455   0.39392   0.00531   0.198226  
         C         C         0.40394   0.39422   0.08626   -0.169896           
         C         C         0.42297   0.41917   0.08260   -0.122166           
         H         H         0.47345   0.42526   0.92425   0.104238  
         H         H         0.37738   0.46288   0.84379   0.107676  
         H         H         0.34327   0.41847   0.85280   0.119155  
         H         H         0.41181   0.37505   0.15394   0.109305  
         H         H         0.44487   0.41945   0.15167   0.103141  
         C         C         0.03467   0.97253   0.07152   0.032817  
         C         C         0.98401   0.94638   0.09330   -0.134755           
         C         C         0.93266   0.97304   0.05102   0.024956  
         C         C         0.91281   0.94642   0.04429   0.062738  
         C         C         0.92151   0.92135   0.95249   -0.121442           
         C         C         0.90189   0.89685   0.94818   -0.169223           
         C         C         0.87238   0.89655   0.03511   0.196517  
         C         C         0.86361   0.92155   0.12619   -0.148661           
         C         C         0.88328   0.94592   0.13023   -0.125107           
         H         H         0.97110   0.92604   0.11312   0.104005  
         H         H         0.94353   0.92172   0.87915   0.102663  
         H         H         0.90923   0.87814   0.87390   0.109504  
         H         H         0.84120   0.92091   0.19608   0.119582  
         H         H         0.87631   0.96459   0.20576   0.106393  
         C         C         0.17184   0.17302   0.96234   0.055842  
         C         C         0.16743   0.20017   0.88376   -0.130577           
         C         C         0.18965   0.22253   0.89857   -0.130759           
         C         C         0.21741   0.21803   0.99059   0.128778  
         C         C         0.22197   0.19055   0.06782   -0.124730           
         C         C         0.19952   0.16861   0.05467   -0.109955           
         C         C         0.24060   0.24008   0.00742   -0.102550           
         C         C         0.26167   0.25818   0.02670   -0.101436           
         C         C         0.28501   0.28006   0.04469   0.129059  
         C         C         0.31285   0.27506   0.13535   -0.134271           
         C         C         0.33523   0.29723   0.15249   -0.129399           
         C         C         0.33090   0.32467   0.07716   0.053401  
         C         C         0.30312   0.32959   0.98642   -0.108057           
         C         C         0.28051   0.30785   0.97097   -0.125323           
         H         H         0.14642   0.20356   0.80972   0.105946  
         H         H         0.18628   0.24339   0.83673   0.118391  
         H         H         0.24323   0.18722   0.13958   0.116433  
         H         H         0.20264   0.14765   0.11590   0.116170  
         H         H         0.31614   0.25396   0.19463   0.119518  
         H         H         0.35621   0.29351   0.22626   0.108001  
         H         H         0.30014   0.35088   0.92863   0.115265  
         H         H         0.25917   0.31164   0.90037   0.116649  
         C         C         0.14837   0.14971   0.94786   0.064985  
         N         N         0.14949   0.12729   0.04531   -0.301777           
         N         N         0.35320   0.37054   -0.00263  -0.303191           
         C         C         0.35449   0.34787   0.09286   0.065267  
         H         H         0.87303   0.84650   0.86475   0.066619  
         H         H         0.62735   0.65382   0.18395   0.067128  
         C         C         0.46632   0.52611   0.96410   0.033645  
         C         C         0.51637   0.55297   0.93554   -0.135448           
         C         C         0.56809   0.52763   0.98443   0.025854  
         C         C         0.58715   0.55475   0.98901   0.062608  
         C         C         0.61691   0.55561   0.90518   -0.124613           
         C         C         0.63607   0.58033   0.90945   -0.148607           
         C         C         0.62649   0.60543   -0.00218  0.198186  
         C         C         0.59654   0.60493   0.08038   -0.171604           
         C         C         0.57751   0.58001   0.07665   -0.122619           
         H         H         0.52900   0.57332   0.91120   0.103905  
         H         H         0.62433   0.53696   0.83055   0.106929  
         H         H         0.65869   0.58127   0.84155   0.120193  
         H         H         0.58824   0.62387   0.15006   0.109076  
         H         H         0.55517   0.57962   0.14724   0.103295  
         C         C         0.96652   0.02702   0.07095   0.033354  
         C         C         0.01680   0.05306   0.09873   -0.136813           
         C         C         0.06852   0.02681   0.05350   0.023728  
         C         C         0.08815   0.05362   0.04609   0.061745  
         C         C         0.07929   0.07918   0.96055   -0.121682           
         C         C         0.09856   0.10397   0.95754   -0.170063           
         C         C         0.12802   0.10397   0.03774   0.198430  
         C         C         0.13702   0.07847   0.12242   -0.149355           
         C         C         0.11759   0.05393   0.12616   -0.125722           
         H         H         0.02955   0.07323   0.12235   0.104134  
         H         H         0.05743   0.07915   0.89109   0.104459  
         H         H         0.09096   0.12331   0.89054   0.109338  
         H         H         0.15928   0.07893   0.18841   0.120030  
         H         H         0.12453   0.03494   0.19793   0.106725  
         C         C         0.82899   0.82743   0.96404   0.054587  
         C         C         0.83455   0.79979   0.89281   -0.127104           
         C         C         0.81189   0.77767   0.90637   -0.130621           
         C         C         0.78248   0.78281   0.98961   0.131229  
         C         C         0.77674   0.81083   0.05872   -0.127054           
         C         C         0.79963   0.83254   0.04705   -0.103325           
         C         C         0.75909   0.76074   0.00590   -0.103158           
         C         C         0.73834   0.74214   0.02483   -0.101102           
         C         C         0.71524   0.71984   0.04251   0.130064  
         C         C         0.68679   0.72411   0.13603   -0.131322           
         C         C         0.66455   0.70167   0.15206   -0.128693           
         C         C         0.66959   0.67458   0.07327   0.055550  
         C         C         0.69790   0.67042   0.97921   -0.104370           
         C         C         0.72040   0.69245   0.96476   -0.126277           
         H         H         0.85690   0.79577   0.82582   0.107034  
         H         H         0.81635   0.75639   0.85099   0.117623  
         H         H         0.75414   0.81481   0.12282   0.116973  
         H         H         0.79566   0.85395   0.10196   0.114049  
         H         H         0.68284   0.74496   0.19739   0.116201  
         H         H         0.64297   0.70504   0.22664   0.105074  
         H         H         0.70135   0.64950   0.91769   0.114022  
         H         H         0.74215   0.68924   0.89160   0.117872  
         C         C         0.85309   0.85033   0.95228   0.065529  
         N         N         0.85028   0.87364   0.04177   -0.303975           
         N         N         0.64806   0.62875   0.99106   -0.302853           
         C         C         0.64603   0.65119   0.08781   0.067434  
         H         H         0.13075   0.15222   0.85043   0.069024  
         H         H         0.37235   0.34503   0.18880   0.070818  
         C         C         0.41734   0.49835   -0.00374  -0.185453           
         C         C         0.51797   0.49971   0.96984   0.005620  
         H         H         0.39169   0.49811   0.01835   0.104147  
         C         C         0.58420   0.50094   -0.00340  -0.187830           
         C         C         0.48380   0.49917   0.96939   0.006252  
         H         H         0.60966   0.50145   0.01851   0.105574  
         C         C         0.91715   0.00011   0.04295   -0.185620           
         C         C         0.01766   -0.00027  0.06876   0.006241  
         H         H         0.89162   0.00023   0.02277   0.104528  
         C         C         0.08417   -0.00020  0.04565   -0.185612           
         C         C         0.98349   -0.00021  0.06792   0.006509  
         H         H         0.10987   -0.00023  0.02539   0.104244  
         C         C         0.53360   0.52764   0.46960   0.033448  
         C         C         0.48344   0.55394   0.43976   -0.136735           
         C         C         0.43145   0.52768   0.48203   0.024291  
         C         C         0.41159   0.55437   0.48427   0.061096  
         C         C         0.38251   0.55421   0.40076   -0.125152           
         C         C         0.36262   0.57847   0.40115   -0.148445           
         C         C         0.37075   0.60413   0.48612   0.197667  
         C         C         0.39982   0.60454   0.56996   -0.171251           
         C         C         0.41962   0.58013   0.56965   -0.121739           
         H         H         0.47085   0.57419   0.41530   0.104144  
         H         H         0.37615   0.53502   0.32946   0.106959  
         H         H         0.34061   0.57839   0.33289   0.119198  
         H         H         0.40676   0.62383   0.63872   0.108686  
         H         H         0.44118   0.58059   0.64151   0.104670  
         C         C         0.03334   0.02797   0.56788   0.036000  
         C         C         0.98309   0.05458   0.59469   -0.136594           
         C         C         0.93133   0.02859   0.55370   0.025139  
         C         C         0.91174   0.05542   0.55145   0.063788  
         C         C         0.92046   0.08093   0.46323   -0.125240           
         C         C         0.90086   0.10551   0.46214   -0.170848           
         C         C         0.87136   0.10540   0.54887   0.196604  
         C         C         0.86269   0.08006   0.63814   -0.149045           
         C         C         0.88229   0.05563   0.63847   -0.126144           
         H         H         0.97042   0.07495   0.61719   0.103131  
         H         H         0.94245   0.08102   0.38968   0.104716  
         H         H         0.90824   0.12463   0.39079   0.110769  
         H         H         0.84036   0.08043   0.70884   0.119052  
         H         H         0.87541   0.03668   0.71244   0.106346  
         C         C         0.16903   0.82702   0.46013   0.052267  
         C         C         0.16520   0.80080   0.37175   -0.127781           
         C         C         0.18711   0.77814   0.38474   -0.131032           
         C         C         0.21405   0.78132   0.48460   0.129607  
         C         C         0.21800   0.80783   0.57210   -0.127559           
         C         C         0.19580   0.83004   0.56077   -0.106699           
         C         C         0.23688   0.75886   0.49912   -0.099036           
         C         C         0.25731   0.74007   0.51623   -0.105396           
         C         C         0.28042   0.71789   0.53169   0.130972  
         C         C         0.30879   0.72269   0.61839   -0.132614           
         C         C         0.33113   0.70041   0.63213   -0.129029           
         C         C         0.32632   0.67300   0.55755   0.054537  
         C         C         0.29808   0.66833   0.47026   -0.104093           
         C         C         0.27543   0.69018   0.45859   -0.128040           
         H         H         0.14502   0.79835   0.29091   0.103454  
         H         H         0.18414   0.75805   0.31521   0.115967  
         H         H         0.23849   0.81026   0.65051   0.116459  
         H         H         0.19849   0.85023   0.62963   0.112795  
         H         H         0.31256   0.74377   0.67681   0.118710  
         H         H         0.35261   0.70412   0.70195   0.106481  
         H         H         0.29469   0.64716   0.41223   0.114247  
         H         H         0.25362   0.68655   0.39174   0.116665  
         C         C         0.14619   0.85091   0.44632   0.070167  
         N         N         0.14648   0.87234   0.55037   -0.299627           
         N         N         0.34890   0.62716   0.47619   -0.302685           
         C         C         0.34990   0.64976   0.57192   0.063942  
         H         H         0.86553   0.15131   0.34570   0.069893  
         H         H         0.62399   0.34666   0.69040   0.067536  
         C         C         0.46523   0.47343   0.46884   0.034902  
         C         C         0.51568   0.44720   0.44226   -0.133836           
         C         C         0.56692   0.47328   0.48981   0.025245  
         C         C         0.58615   0.44633   0.49777   0.063637  
         C         C         0.61590   0.44528   0.41431   -0.126345           
         C         C         0.63483   0.42042   0.41919   -0.148010           
         C         C         0.62499   0.39545   0.50849   0.198118  
         C         C         0.59521   0.39629   0.59281   -0.171585           
         C         C         0.57638   0.42130   0.58785   -0.122491           
         H         H         0.52861   0.42700   0.41862   0.104547  
         H         H         0.62351   0.46388   0.33930   0.108041  
         H         H         0.65744   0.41937   0.35118   0.120223  
         H         H         0.58697   0.37752   0.66471   0.109134  
         H         H         0.55405   0.42199   0.65839   0.102613  
         C         C         0.96448   0.97416   0.56999   0.033905  
         C         C         0.01449   0.94766   0.60007   -0.134028           
         C         C         0.06654   0.97346   0.55262   0.025168  
         C         C         0.08594   0.94657   0.54761   0.058878  
         C         C         0.07679   0.92099   0.46401   -0.123463           
         C         C         0.09594   0.89614   0.46117   -0.172461           
         C         C         0.12544   0.89600   0.54107   0.198876  
         C         C         0.13472   0.92154   0.62397   -0.148723           
         C         C         0.11552   0.94624   0.62634   -0.125040           
         H         H         0.02685   0.92736   0.62622   0.104761  
         H         H         0.05471   0.92107   0.39638   0.103814  
         H         H         0.08807   0.87685   0.39503   0.109088  
         H         H         0.15706   0.92108   0.68924   0.121066  
         H         H         0.12274   0.96532   0.69616   0.106644  
         C         C         0.82547   0.17294   0.47316   0.056659  
         C         C         0.82901   0.19985   0.39016   -0.127762           
         C         C         0.80641   0.22186   0.41023   -0.133347           
         C         C         0.77891   0.21711   0.51044   0.128482  
         C         C         0.77510   0.18980   0.59174   -0.126643           
         C         C         0.79816   0.16834   0.57455   -0.110001           
         C         C         0.75539   0.23894   0.52905   -0.100113           
         C         C         0.73484   0.25771   0.54720   -0.104826           
         C         C         0.71205   0.28023   0.56337   0.131291  
         C         C         0.68352   0.27637   0.65681   -0.130980           
         C         C         0.66145   0.29896   0.66959   -0.130435           
         C         C         0.66685   0.32583   0.58820   0.054133  
         C         C         0.69546   0.32969   0.49606   -0.105207           
         C         C         0.71769   0.30745   0.48397   -0.125402           
         H         H         0.84957   0.20341   0.30825   0.108002  
         H         H         0.80924   0.24258   0.34527   0.119660  
         H         H         0.75391   0.18611   0.66854   0.115870  
         H         H         0.79579   0.14742   0.63769   0.115346  
         H         H         0.67941   0.25568   0.72026   0.116174  
         H         H         0.63973   0.29591   0.74357   0.107122  
         H         H         0.69933   0.35049   0.43343   0.113866  
         H         H         0.73958   0.31037   0.41151   0.118621  
         C         C         0.84926   0.14983   0.45379   0.067310  
         N         N         0.84958   0.12851   0.55901   -0.300329           
         N         N         0.64627   0.37189   0.50226   -0.305403           
         C         C         0.64342   0.34932   0.59828   0.065748  
         H         H         0.12986   0.84990   0.34225   0.067454  
         H         H         0.36764   0.65247   0.66846   0.070429  
         C         C         0.53333   0.47328   0.47158   0.034279  
         C         C         0.48315   0.44728   0.44084   -0.137153           
         C         C         0.43142   0.47364   0.48428   0.025512  
         C         C         0.41182   0.44683   0.48963   0.062406  
         C         C         0.38266   0.44634   0.40697   -0.126227           
         C         C         0.36326   0.42173   0.41067   -0.148744           
         C         C         0.37210   0.39636   0.49710   0.198097  
         C         C         0.40127   0.39663   0.57996   -0.169483           
         C         C         0.42047   0.42144   0.57728   -0.122333           
         H         H         0.47052   0.42711   0.41552   0.104778  
         H         H         0.37591   0.46523   0.33376   0.105681  
         H         H         0.34104   0.42118   0.34436   0.119535  
         H         H         0.40868   0.37760   0.65017   0.110017  
         H         H         0.44206   0.42161   0.64895   0.104828  
         C         C         0.03274   0.97358   0.57026   0.034014  
         C         C         0.98194   0.94792   0.59911   -0.136852           
         C         C         0.93080   0.97458   0.55394   0.025323  
         C         C         0.91096   0.94793   0.54929   0.061726  
         C         C         0.92011   0.92250   0.46221   -0.123107           
         C         C         0.90067   0.89786   0.45968   -0.171518           
         C         C         0.87080   0.89773   0.54293   0.199170  
         C         C         0.86150   0.92312   0.62954   -0.150476           
         C         C         0.88107   0.94761   0.63213   -0.128829           
         H         H         0.96888   0.92777   0.62258   0.103735  
         H         H         0.94238   0.92249   0.39104   0.105183  
         H         H         0.90858   0.87872   0.39050   0.109670  
         H         H         0.83883   0.92276   0.69726   0.119817  
         H         H         0.87379   0.96654   0.70471   0.108911  
         C         C         0.17291   0.17220   0.46515   0.053953  
         C         C         0.16857   0.19979   0.39155   -0.127379           
         C         C         0.19122   0.22175   0.40753   -0.130944           
         C         C         0.21938   0.21648   0.49517   0.129018  
         C         C         0.22390   0.18852   0.56697   -0.127280           
         C         C         0.20097   0.16697   0.55297   -0.104025           
         C         C         0.24252   0.23860   0.51221   -0.100920           
         C         C         0.26261   0.25772   0.52833   -0.102308           
         C         C         0.28508   0.28048   0.54392   0.129443  
         C         C         0.31308   0.27665   0.63515   -0.132576           
         C         C         0.33469   0.29950   0.65031   -0.129065           
         C         C         0.32949   0.32660   0.57246   0.053746  
         C         C         0.30159   0.33037   0.48097   -0.105616           
         C         C         0.27972   0.30791   0.46728   -0.125781           
         H         H         0.14724   0.20385   0.32099   0.107015  
         H         H         0.18785   0.24303   0.35041   0.116868  
         H         H         0.24544   0.18441   0.63524   0.117024  
         H         H         0.20385   0.14557   0.60966   0.113645  
         H         H         0.31718   0.25583   0.69616   0.119289  
         H         H         0.35578   0.29652   0.72430   0.107306  
         H         H         0.29794   0.35137   0.42099   0.112969  
         H         H         0.25838   0.31085   0.39549   0.116514  
         C         C         0.14897   0.14927   0.45091   0.065856  
         N         N         0.14987   0.12665   0.54710   -0.302469           
         N         N         0.35071   0.37293   0.48999   -0.303133           
         C         C         0.35250   0.35032   0.58586   0.067361  
         H         H         0.86820   0.85185   0.34342   0.068035  
         H         H         0.63148   0.65103   0.67059   0.067207  
         C         C         0.46531   0.52787   0.46761   0.035959  
         C         C         0.51602   0.55382   0.44052   -0.134728           
         C         C         0.56730   0.52723   0.48539   0.025761  
         C         C         0.58738   0.55375   0.48558   0.062649  
         C         C         0.61681   0.55342   0.39832   -0.127747           
         C         C         0.63694   0.57751   0.39789   -0.147351           
         C         C         0.62870   0.60308   0.48536   0.197502  
         C         C         0.59918   0.60366   0.57205   -0.171146           
         C         C         0.57913   0.57942   0.57269   -0.121627           
         H         H         0.52912   0.57392   0.41642   0.103406  
         H         H         0.62328   0.53424   0.32572   0.107145  
         H         H         0.65938   0.57739   0.32813   0.119939  
         H         H         0.59211   0.62293   0.64224   0.108580  
         H         H         0.55715   0.57986   0.64646   0.103210  
         C         C         0.96505   0.02858   0.56841   0.033806  
         C         C         0.01567   0.05429   0.59461   -0.135529           
         C         C         0.06716   0.02742   0.55109   0.022731  
         C         C         0.08722   0.05393   0.54578   0.062263  
         C         C         0.07914   0.07944   0.45785   -0.121451           
         C         C         0.09888   0.10390   0.45500   -0.169292           
         C         C         0.12794   0.10368   0.53902   0.197054  
         C         C         0.13617   0.07819   0.62587   -0.147371           
         C         C         0.11637   0.05388   0.62851   -0.126272           
         H         H         0.02862   0.07441   0.61699   0.104365  
         H         H         0.05761   0.07954   0.38570   0.102757  
         H         H         0.09195   0.12299   0.38388   0.109065  
         H         H         0.15825   0.07836   0.69350   0.119620  
         H         H         0.12285   0.03481   0.70083   0.106328  
         C         C         0.82843   0.82842   0.46127   0.052132  
         C         C         0.83381   0.80223   0.37376   -0.126406           
         C         C         0.81238   0.77909   0.38677   -0.133992           
         C         C         0.78439   0.78172   0.48575   0.129692  
         C         C         0.77901   0.80811   0.57349   -0.125567           
         C         C         0.80075   0.83083   0.56220   -0.107842           
         C         C         0.76200   0.75872   0.49828   -0.100316           
         C         C         0.74201   0.73931   0.51172   -0.103126           
         C         C         0.71912   0.71676   0.52668   0.130616  
         C         C         0.69067   0.72096   0.62027   -0.133206           
         C         C         0.66849   0.69849   0.63628   -0.130424           
         C         C         0.67350   0.67144   0.55704   0.054798  
         C         C         0.70184   0.66731   0.46297   -0.107504           
         C         C         0.72433   0.68938   0.44865   -0.127340           
         H         H         0.85499   0.80005   0.29476   0.105471  
         H         H         0.81656   0.75893   0.31895   0.118727  
         H         H         0.75775   0.81002   0.65170   0.114468  
         H         H         0.79705   0.85099   0.63100   0.114841  
         H         H         0.68677   0.74177   0.68220   0.118937  
         H         H         0.64700   0.70174   0.71174   0.108585  
         H         H         0.70543   0.64637   0.40192   0.116443  
         H         H         0.74614   0.68611   0.37598   0.116974  
         C         C         0.85092   0.85271   0.44742   0.069933  
         N         N         0.84949   0.87415   0.55147   -0.302084           
         N         N         0.65100   0.62583   0.47537   -0.300055           
         C         C         0.64976   0.64826   0.57251   0.064338  
         H         H         0.13113   0.15226   0.35501   0.068337  
         H         H         0.37061   0.34780   0.68082   0.066871  
         C         C         0.41581   0.50066   0.49344   -0.186020           
         C         C         0.51641   0.50053   0.47224   0.005363  
         H         H         0.39010   0.50064   0.51328   0.103211  
         C         C         0.58265   0.50018   0.49898   -0.185134           
         C         C         0.48227   0.50062   0.47108   0.005991  
         H         H         0.60814   0.50007   0.52029   0.104646  
         C         C         0.91554   0.00170   0.54314   -0.187464           
         C         C         0.01599   0.00093   0.56715   0.005235  
         H         H         0.89004   0.00190   0.52250   0.103671  
         C         C         0.08245   0.00029   0.54007   -0.183934           
         C         C         0.98181   0.00123   0.56731   0.006071  
         H         H         0.10807   0.00001   0.51743   0.103965 

