
##########################################################################
#               Crystallographic Information Format file
#               Produced by PyCifRW module
#
#  This is a CIF file.  CIF has been adopted by the International
#  Union of Crystallography as the standard for data archiving and
#  transmission.
#
#  For information on this file format, follow the CIF links at
#  http://www.iucr.org
##########################################################################

data_image0

_cell_length_a                          31.8451
_cell_length_b                          36.193
_cell_length_c                          8.12167
_cell_angle_alpha                       90.5219
_cell_angle_beta                        90.1528
_cell_angle_gamma                       89.9837
_symmetry_space_group_name_H-M          'P 1'
_space_group_name_Hall                  'P 1'
loop_
  _atom_site_type_symbol
  _atom_site_label
  _atom_site_fract_x
  _atom_site_fract_y
  _atom_site_fract_z
  _atom_site_charge
         C         C         0.54737   0.53502   0.89354   0.036273  
         C         C         0.48122   0.56850   0.86471   -0.132585           
         C         C         0.41267   0.53562   0.90204   0.024954  
         C         C         0.38674   0.56942   0.91286   0.059198  
         C         C         0.34705   0.56995   0.83561   -0.122876           
         C         C         0.32095   0.60059   0.84620   -0.151278           
         C         C         0.33319   0.63245   0.93462   0.199488  
         C         C         0.37299   0.63234   0.01143   -0.173488           
         C         C         0.39886   0.60139   0.00166   -0.121858           
         H         H         0.46473   0.59425   0.84259   0.104606  
         H         H         0.33740   0.54633   0.76092   0.107605  
         H         H         0.29079   0.60102   0.78313   0.121299  
         H         H         0.38359   0.65636   0.08147   0.109610  
         H         H         0.42855   0.60141   0.06816   0.103450  
         C         C         0.22160   0.78037   0.01734   0.057739  
         C         C         0.21280   0.74729   0.93083   -0.126336           
         C         C         0.23997   0.71736   0.93855   -0.105772           
         C         C         0.27713   0.71964   0.03272   0.058137  
         C         C         0.28574   0.75259   0.12075   -0.126080           
         C         C         0.25854   0.78251   0.11290   -0.106655           
         H         H         0.18437   0.74546   0.85642   0.104645  
         H         H         0.23356   0.69192   0.87084   0.112584  
         H         H         0.31417   0.75444   0.19525   0.104480  
         H         H         0.26497   0.80803   0.17992   0.112716  
         C         C         0.19283   0.81162   0.00461   0.069296  
         N         N         0.19502   0.83935   0.10594   -0.298386           
         H         H         0.84032   0.19821   0.96272   0.065595  
         C         C         0.95540   0.03552   0.11830   0.034345  
         C         C         0.02148   0.06917   0.14464   -0.137136           
         C         C         0.09005   0.03640   0.10237   0.024768  
         C         C         0.11582   0.07037   0.09784   0.060972  
         C         C         0.15520   0.07101   0.17766   -0.124862           
         C         C         0.18066   0.10216   0.17518   -0.149396           
         C         C         0.16823   0.13429   0.09174   0.197381  
         C         C         0.12878   0.13403   0.01239   -0.172233           
         C         C         0.10348   0.10267   0.01460   -0.122641           
         H         H         0.03800   0.09497   0.16670   0.104215  
         H         H         0.16516   0.04709   0.24792   0.107174  
         H         H         0.21046   0.10278   0.24081   0.120378  
         H         H         0.11799   0.15828   0.94645   0.109654  
         H         H         0.07405   0.10271   0.94641   0.104477  
         C         C         0.30841   0.31376   0.02512   0.071623  
         N         N         0.30503   0.34076   0.92231   -0.304911           
         H         H         0.67180   0.69250   0.11628   0.068500  
         C         C         0.45683   0.46685   0.88330   0.035858  
         C         C         0.52309   0.43328   0.86520   -0.135372           
         C         C         0.59106   0.46626   0.91161   0.025588  
         C         C         0.61645   0.43229   0.92227   0.064618  
         C         C         0.65550   0.43062   0.84157   -0.129453           
         C         C         0.68098   0.39965   0.85351   -0.146984           
         C         C         0.66857   0.36888   0.94626   0.195164  
         C         C         0.62958   0.37042   0.02819   -0.167062           
         C         C         0.60425   0.40156   0.01644   -0.124172           
         H         H         0.53987   0.40744   0.84716   0.104610  
         H         H         0.66519   0.45359   0.76502   0.110244  
         H         H         0.71087   0.39804   0.78936   0.119714  
         H         H         0.61975   0.34791   0.10713   0.108724  
         H         H         0.57534   0.40304   0.08722   0.103864  
         C         C         0.77871   0.22081   0.01717   0.062519  
         C         C         0.78982   0.25607   0.95889   -0.129073           
         C         C         0.76109   0.28484   0.96105   -0.102733           
         C         C         0.72018   0.27911   0.02152   0.060111  
         C         C         0.70902   0.24384   0.07951   -0.127116           
         C         C         0.73774   0.21504   0.07691   -0.104333           
         H         H         0.82142   0.26050   0.91192   0.105759  
         H         H         0.76906   0.31214   0.91582   0.113871  
         H         H         0.67740   0.23942   0.12633   0.105928  
         H         H         0.72974   0.18772   0.12184   0.116317  
         C         C         0.80980   0.19141   0.01791   0.058705  
         N         N         0.80164   0.15977   0.08347   -0.297807           
         H         H         0.17014   0.81015   0.90240   0.065740  
         C         C         0.04605   0.96750   0.11654   0.034123  
         C         C         0.97986   0.93399   0.14178   -0.134285           
         C         C         0.91157   0.96685   0.10006   0.025230  
         C         C         0.88622   0.93280   0.09101   0.064740  
         C         C         0.84756   0.93114   0.17446   -0.127722           
         C         C         0.82254   0.89976   0.16568   -0.145248           
         C         C         0.83506   0.86859   0.07335   0.194747  
         C         C         0.87368   0.87009   0.98903   -0.167563           
         C         C         0.89847   0.90161   -0.00261  -0.124026           
         H         H         0.96321   0.90829   0.16334   0.104856  
         H         H         0.83799   0.95427   0.25217   0.107376  
         H         H         0.79315   0.89806   0.23322   0.118863  
         H         H         0.88395   0.84693   0.91299   0.108619  
         H         H         0.92727   0.90287   0.92600   0.103849  
         C         C         0.69767   0.68835   0.02860   0.062152  
         N         N         0.70164   0.65916   0.93674   -0.301019           
         H         H         0.33290   0.31250   0.12050   0.066300  
         C         C         0.54666   0.46630   0.89294   0.034914  
         C         C         0.48022   0.43358   0.85919   -0.134238           
         C         C         0.41229   0.46735   0.89667   0.026332  
         C         C         0.38630   0.43362   0.90343   0.062028  
         C         C         0.34709   0.43248   0.82265   -0.127404           
         C         C         0.32126   0.40162   0.83198   -0.149992           
         C         C         0.33342   0.37037   0.92243   0.198388  
         C         C         0.37284   0.37114   0.00194   -0.169661           
         C         C         0.39837   0.40220   0.99345   -0.123650           
         H         H         0.46334   0.40806   0.83439   0.105188  
         H         H         0.33755   0.45570   0.74703   0.108403  
         H         H         0.29134   0.40065   0.76717   0.120067  
         H         H         0.38323   0.34766   0.07411   0.108596  
         H         H         0.42766   0.40281   0.06245   0.103606  
         C         C         0.22357   0.22207   0.00575   0.061427  
         C         C         0.21461   0.25479   0.91933   -0.129027           
         C         C         0.24173   0.28475   0.92689   -0.107661           
         C         C         0.27905   0.28283   0.01992   0.056638  
         C         C         0.28801   0.25015   0.10673   -0.127193           
         C         C         0.26079   0.22020   0.09963   -0.108356           
         H         H         0.18623   0.25624   0.84457   0.106122  
         H         H         0.23535   0.30994   0.85928   0.114540  
         H         H         0.31657   0.24858   0.18043   0.106008  
         H         H         0.26735   0.19499   0.16690   0.115396  
         C         C         0.19445   0.19097   0.99539   0.070828  
         N         N         0.19626   0.16415   0.09948   -0.301048           
         H         H         0.84160   0.80439   0.91312   0.067556  
         C         C         0.95609   0.96691   0.11600   0.035124  
         C         C         0.02278   0.93430   0.14202   -0.135494           
         C         C         0.09055   0.96806   0.10083   0.026266  
         C         C         0.11649   0.93421   0.09544   0.061534  
         C         C         0.15499   0.93327   0.18128   -0.128302           
         C         C         0.17992   0.90176   0.18123   -0.147838           
         C         C         0.16777   0.86969   0.09411   0.198941  
         C         C         0.12951   0.87054   0.00630   -0.171329           
         C         C         0.10471   0.90219   0.00635   -0.121153           
         H         H         0.03984   0.90884   0.16417   0.104661  
         H         H         0.16459   0.95727   0.25372   0.107302  
         H         H         0.20905   0.90082   0.25120   0.119276  
         H         H         0.11936   0.84655   0.93510   0.109382  
         H         H         0.07630   0.90275   0.93175   0.103951  
         C         C         0.30675   0.68887   0.03882   0.072929  
         N         N         0.30457   0.66190   0.93337   -0.302806           
         H         H         0.65928   0.30274   0.08223   0.067313  
         C         C         0.45724   0.53562   0.88766   0.034669  
         C         C         0.52416   0.56825   0.86814   -0.139962           
         C         C         0.59188   0.53438   0.91063   0.023298  
         C         C         0.61841   0.56778   0.91952   0.064708  
         C         C         0.65748   0.56802   0.83835   -0.126596           
         C         C         0.68390   0.59846   0.84790   -0.148081           
         C         C         0.67252   0.63018   0.93890   0.197690  
         C         C         0.63345   0.63020   0.02038   -0.170994           
         C         C         0.60723   0.59953   0.01141   -0.122225           
         H         H         0.54126   0.59382   0.84952   0.104617  
         H         H         0.66647   0.54437   0.76272   0.106523  
         H         H         0.71370   0.59896   0.78277   0.120102  
         H         H         0.62379   0.65392   0.09428   0.110868  
         H         H         0.57822   0.59938   0.08175   0.105057  
         C         C         0.78427   0.77815   -0.00125  0.057521  
         C         C         0.79435   0.74358   0.92736   -0.127869           
         C         C         0.76656   0.71415   0.93692   -0.108930           
         C         C         0.72788   0.71845   0.01887   0.061131  
         C         C         0.71799   0.75294   0.09101   -0.126298           
         C         C         0.74548   0.78246   0.07971   -0.107432           
         H         H         0.82431   0.74016   0.86462   0.105492  
         H         H         0.77370   0.68739   0.88167   0.116038  
         H         H         0.68839   0.75618   0.15651   0.106961  
         H         H         0.73832   0.80922   0.13485   0.115091  
         C         C         0.81392   0.80868   0.99148   0.064448  
         N         N         0.80731   0.83864   0.07584   -0.303404           
         H         H         0.17174   0.19172   0.89320   0.066740  
         C         C         0.04548   0.03632   0.11763   0.033463  
         C         C         0.97854   0.06884   0.14496   -0.135788           
         C         C         0.91087   0.03486   0.10371   0.025340  
         C         C         0.88470   0.06845   0.09861   0.064757  
         C         C         0.84644   0.06939   0.18509   -0.127665           
         C         C         0.82011   0.09992   0.17767   -0.147543           
         C         C         0.83097   0.13100   0.08396   0.196155  
         C         C         0.86928   0.13024   -0.00300  -0.169328           
         C         C         0.89542   0.09956   0.00425   -0.123966           
         H         H         0.96139   0.09431   0.16794   0.105061  
         H         H         0.83812   0.04626   0.26313   0.107090  
         H         H         0.79090   0.10094   0.24668   0.119930  
         H         H         0.87792   0.15303   0.91769   0.108563  
         H         H         0.92375   0.09869   0.92985   0.103509  
         C         C         0.68932   0.30874   0.02157   0.060637  
         N         N         0.69733   0.33970   0.94973   -0.301315           
         H         H         0.33036   0.69012   0.13776   0.066459  
         C         C         0.39195   0.50153   0.90862   -0.184246           
         C         C         0.52454   0.50083   0.89213   0.005589  
         H         H         0.35824   0.50158   0.92943   0.103822  
         C         C         0.61204   0.50014   0.92100   -0.183838           
         C         C         0.47948   0.50111   0.88831   0.003821  
         H         H         0.64576   0.49985   0.94230   0.104852  
         C         C         0.11078   0.00231   0.09189   -0.185057           
         C         C         0.97829   0.00140   0.11570   0.004605  
         H         H         0.14450   0.00238   0.07148   0.103757  
         C         C         0.89051   0.00070   0.09226   -0.184401           
         C         C         0.02336   0.00175   0.11569   0.007295  
         H         H         0.85673   0.00045   0.07157   0.106345  
         C         C         0.54354   0.53353   0.39860   0.034870  
         C         C         0.47727   0.56612   0.36036   -0.135729           
         C         C         0.40926   0.53238   0.39210   0.024825  
         C         C         0.38345   0.56620   0.40236   0.063752  
         C         C         0.34484   0.56794   0.31782   -0.127453           
         C         C         0.31919   0.59888   0.33052   -0.146134           
         C         C         0.33083   0.62951   0.42857   0.195342  
         C         C         0.36957   0.62802   0.51299   -0.167979           
         C         C         0.39510   0.59698   0.50013   -0.124016           
         H         H         0.46038   0.59159   0.33629   0.104605  
         H         H         0.33568   0.54509   0.23752   0.106304  
         H         H         0.28980   0.60047   0.26253   0.118536  
         H         H         0.37922   0.65068   0.59339   0.109143  
         H         H         0.42393   0.59578   0.57197   0.104247  
         C         C         0.21909   0.77674   0.51170   0.055616  
         C         C         0.20999   0.74298   0.43123   -0.129712           
         C         C         0.23801   0.71370   0.43731   -0.105843           
         C         C         0.27612   0.71729   0.52469   0.059423  
         C         C         0.28505   0.75092   0.60656   -0.128818           
         C         C         0.25716   0.78030   0.59935   -0.104689           
         H         H         0.18086   0.74028   0.36161   0.105703  
         H         H         0.23186   0.68775   0.37318   0.113936  
         H         H         0.31412   0.75366   0.67655   0.106687  
         H         H         0.26364   0.80644   0.66133   0.114413  
         C         C         0.18928   0.80716   0.50248   0.065424  
         N         N         0.19438   0.83673   0.59124   -0.304294           
         H         H         0.82901   0.18984   0.39558   0.064413  
         C         C         0.95503   0.03360   0.61493   0.034732  
         C         C         0.02145   0.06618   0.65196   -0.133860           
         C         C         0.08934   0.03278   0.60738   0.026738  
         C         C         0.11492   0.06671   0.60234   0.062076  
         C         C         0.15365   0.06815   0.68619   -0.127102           
         C         C         0.17870   0.09955   0.68178   -0.148812           
         C         C         0.16643   0.13086   0.59207   0.196058  
         C         C         0.12760   0.12962   0.50803   -0.169524           
         C         C         0.10266   0.09813   0.51271   -0.121368           
         H         H         0.03839   0.09152   0.68004   0.104225  
         H         H         0.16329   0.04474   0.76043   0.106802  
         H         H         0.20806   0.10099   0.75021   0.119916  
         H         H         0.11714   0.15301   0.43541   0.108958  
         H         H         0.07374   0.09711   0.44123   0.103369  
         C         C         0.30425   0.31156   0.52233   0.068640  
         N         N         0.30189   0.33794   0.41620   -0.300321           
         H         H         0.66679   0.69045   0.65275   0.066789  
         C         C         0.45432   0.46414   0.38017   0.034893  
         C         C         0.52137   0.43159   0.36446   -0.135106           
         C         C         0.58852   0.46547   0.42120   0.026287  
         C         C         0.61463   0.43186   0.43027   0.060251  
         C         C         0.65411   0.43117   0.35230   -0.126323           
         C         C         0.67952   0.40002   0.35768   -0.149306           
         C         C         0.66687   0.36820   0.44262   0.200706  
         C         C         0.62753   0.36876   0.52194   -0.175069           
         C         C         0.60218   0.40002   0.51605   -0.122178           
         H         H         0.53869   0.40608   0.34513   0.103484  
         H         H         0.66385   0.45483   0.28005   0.107695  
         H         H         0.70933   0.39907   0.29285   0.120465  
         H         H         0.61688   0.34473   0.58955   0.109864  
         H         H         0.57259   0.40042   0.58255   0.102889  
         C         C         0.77749   0.21983   0.51090   0.057666  
         C         C         0.78457   0.25184   0.41710   -0.127301           
         C         C         0.75735   0.28172   0.42630   -0.108547           
         C         C         0.72203   0.28054   0.53013   0.059761  
         C         C         0.71498   0.24858   0.62425   -0.127502           
         C         C         0.74217   0.21867   0.61488   -0.108853           
         H         H         0.81180   0.25302   0.33669   0.100989  
         H         H         0.76249   0.30643   0.35402   0.111163  
         H         H         0.68776   0.24744   0.70477   0.101868  
         H         H         0.73698   0.19397   0.68727   0.112920  
         C         C         0.80644   0.18870   0.49781   0.072659  
         N         N         0.80470   0.16137   0.59921   -0.295738           
         H         H         0.16292   0.80326   0.41634   0.068012  
         C         C         0.04462   0.96444   0.61600   0.034669  
         C         C         0.97784   0.93172   0.63712   -0.138725           
         C         C         0.91017   0.96546   0.59039   0.024675  
         C         C         0.88380   0.93194   0.58636   0.061558  
         C         C         0.84492   0.93248   0.66888   -0.128241           
         C         C         0.81905   0.90165   0.67101   -0.149577           
         C         C         0.83060   0.86881   0.58880   0.199650  
         C         C         0.86933   0.86805   0.50501   -0.175130           
         C         C         0.89513   0.89908   0.50325   -0.120704           
         H         H         0.96084   0.90618   0.65763   0.104644  
         H         H         0.83597   0.95709   0.73824   0.107166  
         H         H         0.78974   0.90185   0.73934   0.120649  
         H         H         0.87914   0.84317   0.43956   0.110822  
         H         H         0.92402   0.89841   0.43214   0.104161  
         C         C         0.68999   0.68910   0.55286   0.072641  
         N         N         0.69228   0.66182   0.44910   -0.301784           
         H         H         0.32787   0.31098   0.62128   0.067007  
         C         C         0.54427   0.46483   0.39617   0.032944  
         C         C         0.47847   0.43125   0.35690   -0.137908           
         C         C         0.40970   0.46416   0.39106   0.025218  
         C         C         0.38384   0.43037   0.39862   0.064008  
         C         C         0.34454   0.42944   0.31837   -0.126908           
         C         C         0.31853   0.39874   0.32724   -0.150509           
         C         C         0.33052   0.36738   0.41710   0.195639  
         C         C         0.37004   0.36783   0.49599   -0.170359           
         C         C         0.39576   0.39883   0.48817   -0.125653           
         H         H         0.46221   0.40545   0.33127   0.104982  
         H         H         0.33508   0.45273   0.24311   0.107909  
         H         H         0.28867   0.39786   0.26203   0.120862  
         H         H         0.38052   0.34407   0.56607   0.109488  
         H         H         0.42509   0.39921   0.55699   0.105385  
         C         C         0.21978   0.21957   0.50593   0.056460  
         C         C         0.21007   0.25239   0.42136   -0.124626           
         C         C         0.23710   0.28246   0.42660   -0.109434           
         C         C         0.27488   0.28061   0.51695   0.059887  
         C         C         0.28446   0.24789   0.60233   -0.127442           
         C         C         0.25756   0.21774   0.59623   -0.108435           
         H         H         0.18105   0.25388   0.35043   0.105208  
         H         H         0.23007   0.30774   0.36062   0.115328  
         H         H         0.31330   0.24655   0.67440   0.106643  
         H         H         0.26471   0.19251   0.66243   0.115702  
         C         C         0.19057   0.18858   0.49898   0.066319  
         N         N         0.19441   0.16079   0.59718   -0.301168           
         H         H         0.82231   0.81190   0.38609   0.066975  
         C         C         0.95459   0.96488   0.60994   0.036376  
         C         C         0.02077   0.93152   0.64017   -0.135784           
         C         C         0.08917   0.96462   0.60136   0.023981  
         C         C         0.11494   0.93078   0.59301   0.063139  
         C         C         0.15418   0.93002   0.67343   -0.125306           
         C         C         0.17933   0.89870   0.66893   -0.148984           
         C         C         0.16651   0.86657   0.58386   0.198415  
         C         C         0.12741   0.86719   0.50176   -0.170027           
         C         C         0.10253   0.89874   0.50534   -0.122607           
         H         H         0.03736   0.90587   0.66332   0.104029  
         H         H         0.16418   0.95392   0.74567   0.107281  
         H         H         0.20914   0.89785   0.73441   0.120172  
         H         H         0.11666   0.84317   0.43213   0.109400  
         H         H         0.07339   0.89917   0.43523   0.104042  
         C         C         0.30649   0.68720   0.52854   0.066096  
         N         N         0.30217   0.65885   0.43159   -0.303432           
         H         H         0.67146   0.31169   0.64689   0.065736  
         C         C         0.45382   0.53288   0.38153   0.035515  
         C         C         0.52013   0.56644   0.36842   -0.135774           
         C         C         0.58771   0.53363   0.42450   0.025777  
         C         C         0.61302   0.56773   0.43603   0.060832  
         C         C         0.65235   0.56883   0.35741   -0.124950           
         C         C         0.67746   0.60014   0.36524   -0.149494           
         C         C         0.66461   0.63181   0.45337   0.198565  
         C         C         0.62519   0.63104   0.53223   -0.171374           
         C         C         0.60018   0.59955   0.52397   -0.123710           
         H         H         0.53704   0.59215   0.35067   0.105638  
         H         H         0.66237   0.54517   0.28399   0.107478  
         H         H         0.70723   0.60129   0.30012   0.120077  
         H         H         0.61426   0.65498   0.60189   0.109103  
         H         H         0.57055   0.59903   0.59014   0.102495  
         C         C         0.77381   0.78100   0.51469   0.056411  
         C         C         0.78123   0.74819   0.42447   -0.124053           
         C         C         0.75466   0.71804   0.43933   -0.109903           
         C         C         0.71916   0.72008   0.54211   0.058001  
         C         C         0.71182   0.75284   0.63309   -0.129009           
         C         C         0.73878   0.78281   0.62020   -0.108970           
         H         H         0.80800   0.74672   0.34147   0.104497  
         H         H         0.76012   0.69260   0.37037   0.112223  
         H         H         0.68464   0.75450   0.71391   0.104836  
         H         H         0.73352   0.80809   0.69053   0.112853  
         C         C         0.80225   0.81231   0.49635   0.071702  
         N         N         0.80281   0.83902   0.60311   -0.295181           
         H         H         0.16559   0.19062   0.40584   0.066258  
         C         C         0.04485   0.03313   0.62225   0.033947  
         C         C         0.97856   0.06641   0.64821   -0.136014           
         C         C         0.91066   0.03368   0.59359   0.024627  
         C         C         0.88491   0.06761   0.59007   0.060297  
         C         C         0.84540   0.06779   0.66802   -0.127104           
         C         C         0.81989   0.09890   0.66749   -0.147733           
         C         C         0.83253   0.13147   0.58808   0.198647  
         C         C         0.87203   0.13160   0.50968   -0.173470           
         C         C         0.89737   0.10025   0.51011   -0.121862           
         H         H         0.96171   0.09197   0.67246   0.103849  
         H         H         0.83553   0.04352   0.73582   0.107770  
         H         H         0.79005   0.09925   0.73234   0.121197  
         H         H         0.88289   0.15616   0.44630   0.109075  
         H         H         0.92688   0.10049   0.44305   0.104407  
         C         C         0.69324   0.31179   0.54199   0.074400  
         N         N         0.69448   0.33814   0.43565   -0.299003           
         H         H         0.33252   0.69045   0.61669   0.066989  
         C         C         0.38886   0.49822   0.39885   -0.187169           
         C         C         0.52146   0.49899   0.39394   0.004322  
         H         H         0.35504   0.49818   0.41663   0.105990  
         C         C         0.60852   0.49972   0.43792   -0.185651           
         C         C         0.47648   0.49865   0.38534   0.005074  
         H         H         0.64192   0.50006   0.46616   0.104287  
         C         C         0.10985   0.99871   0.59499   -0.185364           
         C         C         0.97727   -0.00089  0.61239   0.004112  
         H         H         0.14359   0.99875   0.57489   0.105046  
         C         C         0.89000   -0.00031  0.57831   -0.186526           
         C         C         0.02230   0.99888   0.61592   0.007137  
         H         H         0.85644   -0.00013  0.55338   0.103300 

