
##########################################################################
#               Crystallographic Information Format file
#               Produced by PyCifRW module
#
#  This is a CIF file.  CIF has been adopted by the International
#  Union of Crystallography as the standard for data archiving and
#  transmission.
#
#  For information on this file format, follow the CIF links at
#  http://www.iucr.org
##########################################################################

data_image0

_cell_length_a                          34.8364
_cell_length_b                          34.35
_cell_length_c                          7.58488
_cell_angle_alpha                       83.8027
_cell_angle_beta                        93.1871
_cell_angle_gamma                       119.774
_symmetry_space_group_name_H-M          'P 1'
_space_group_name_Hall                  'P 1'
loop_
  _atom_site_type_symbol
  _atom_site_label
  _atom_site_fract_x
  _atom_site_fract_y
  _atom_site_fract_z
  _atom_site_charge
         H         H         0.84620   0.36389   0.51505   0.064070  
         H         H         0.90732   0.39035   0.39156   0.110004  
         H         H         0.98912   0.42533   0.40764   0.117632  
         H         H         0.99888   0.54673   0.56232   0.113615  
         H         H         0.91717   0.51167   0.54916   0.116386  
         H         H         0.06240   0.57274   0.44407   0.072723  
         H         H         0.11737   0.50090   0.47138   0.114373  
         H         H         0.24844   0.61601   0.48219   0.104374  
         H         H         0.13521   0.63434   0.48010   0.114708  
         H         H         0.26031   0.68933   0.48895   0.066533  
         H         H         0.15746   0.47958   0.30098   0.111609  
         H         H         0.19212   0.43181   0.30278   0.120503  
         H         H         0.29330   0.51626   0.65659   0.113482  
         H         H         0.25950   0.56453   0.65084   0.102731  
         H         H         0.19072   0.39386   0.68016   0.121856  
         H         H         0.14094   0.31138   0.69223   0.109465  
         H         H         0.22261   0.30265   0.30906   0.109039  
         H         H         0.27271   0.38456   0.30208   0.113018  
         H         H         0.30961   0.40212   0.62671   0.114639  
         H         H         0.38999   0.43439   0.62382   0.105629  
         H         H         0.40345   0.55573   0.33723   0.100958  
         H         H         0.32290   0.52321   0.33854   0.115447  
         H         H         0.08805   0.25233   0.54264   0.106041  
         H         H         0.07325   0.12010   0.55774   0.113400  
         H         H         0.20269   0.23706   0.49336   0.113925  
         H         H         0.45144   0.45552   0.46139   0.105320  
         H         H         0.58086   0.57095   0.49801   0.111267  
         H         H         0.46589   0.58680   0.49488   0.109516  
         H         H         0.01647   0.18926   0.58194   0.065395  
         H         H         0.95416   0.16518   0.43407   0.112117  
         H         H         0.87233   0.13053   0.44795   0.118991  
         H         H         0.86266   0.00775   0.70224   0.112398  
         H         H         0.94418   0.04190   0.68180   0.114326  
         H         H         0.80135   0.98396   0.54057   0.073454  
         H         H         0.59069   0.64455   0.48883   0.068031  
         H         H         0.61481   0.71134   0.29863   0.105686  
         H         H         0.66432   0.79374   0.30395   0.115517  
         H         H         0.58257   0.79674   0.70094   0.109467  
         H         H         0.53215   0.71401   0.69375   0.119562  
         H         H         0.28669   0.75601   0.30924   0.110447  
         H         H         0.33599   0.83915   0.31144   0.119228  
         H         H         0.24837   0.84275   0.68106   0.104083  
         H         H         0.20003   0.75992   0.68033   0.116269  
         H         H         0.27107   0.90712   0.47904   0.071473  
         H         H         0.60434   0.86258   0.49682   0.067342  
         H         H         0.39506   0.96616   0.47866   0.108573  
         H         H         0.40974   0.09835   0.48296   0.103713  
         H         H         0.28005   0.98205   0.47026   0.110238  
         H         H         0.72951   0.92073   0.52561   0.114497  
         H         H         0.74247   0.05098   0.56893   0.113958  
         H         H         0.61377   0.93524   0.50701   0.106122  
         H         H         0.45626   0.99517   0.61963   0.101347  
         H         H         0.53624   0.02668   0.62932   0.112424  
         H         H         0.55310   0.15151   0.36360   0.115022  
         H         H         0.47312   0.11975   0.35130   0.105549  
         H         H         0.69588   0.06533   0.74246   0.112489  
         H         H         0.66213   0.11451   0.72785   0.121388  
         H         H         0.57481   0.04136   0.31349   0.113279  
         H         H         0.60785   0.99215   0.32926   0.102486  
         H         H         0.67572   0.15836   0.34786   0.119879  
         H         H         0.72579   0.24034   0.34836   0.107884  
         H         H         0.63511   0.24825   0.68725   0.103732  
         H         H         0.58450   0.16693   0.67985   0.115513  
         H         H         0.77503   0.30047   0.50991   0.105040  
         H         H         0.78690   0.43156   0.48504   0.112581  
         H         H         0.65783   0.31326   0.51127   0.114266  
         H         H         0.34843   0.10918   0.46407   0.060560  
         H         H         0.72366   0.43996   0.49169   0.065859  
         H         H         0.32323   0.14873   0.51459   0.107879  
         H         H         0.28385   0.19187   0.52479   0.116822  
         H         H         0.16038   0.07420   0.42162   0.113525  
         H         H         0.19973   0.03079   0.41214   0.115332  
         H         H         0.69972   0.48108   0.49585   0.115989  
         H         H         0.66089   0.52442   0.50893   0.118950  
         H         H         0.53686   0.40136   0.58771   0.109183  
         H         H         0.57591   0.35750   0.57058   0.113234  
         H         H         0.13777   0.11085   0.55649   0.070788  
         H         H         0.51513   0.44623   0.45430   0.063996  
         H         H         0.06345   0.06134   0.04857   0.073240  
         H         H         0.12118   0.99413   0.01420   0.113397  
         H         H         0.25093   0.11187   0.99519   0.108276  
         H         H         0.13554   0.12613   0.01825   0.114738  
         H         H         0.26076   0.18544   0.00134   0.066629  
         H         H         0.29129   0.01658   0.78972   0.115178  
         H         H         0.25773   0.06490   0.80369   0.101328  
         H         H         0.40684   0.04518   0.11751   0.102067  
         H         H         0.58406   0.06518   0.99143   0.108770  
         H         H         0.46926   0.08114   0.98342   0.110285  
         H         H         0.59333   0.13889   0.00418   0.069704  
         H         H         0.61648   0.19482   0.17834   0.099663  
         H         H         0.66551   0.27715   0.18110   0.113482  
         H         H         0.58282   0.30093   0.79387   0.107346  
         H         H         0.53271   0.21769   0.79204   0.118489  
         H         H         0.28215   0.24089   0.21451   0.110018  
         H         H         0.33159   0.32443   0.21321   0.117925  
         H         H         0.24815   0.34524   0.81899   0.099649  
         H         H         0.19938   0.26276   0.82206   0.112023  
         H         H         0.27237   0.40365   0.98528   0.068546  
         H         H         0.60557   0.35627   0.00201   0.066453  
         H         H         0.39695   0.46055   0.00377   0.109734  
         H         H         0.41214   0.59393   0.94442   0.105003  
         H         H         0.28243   0.47737   0.98691   0.111018  
         H         H         0.73083   0.41380   0.00655   0.115163  
         H         H         0.74604   0.54654   -0.00435  0.111436  
         H         H         0.61590   0.42959   -0.00408  0.107163  
         H         H         0.45973   0.49720   0.84446   0.100795  
         H         H         0.54018   0.52859   0.85400   0.116310  
         H         H         0.55385   0.63949   0.11853   0.112209  
         H         H         0.47373   0.60842   0.10842   0.103594  
         H         H         0.70639   0.57524   0.81912   0.110079  
         H         H         0.67186   0.62311   0.81782   0.119362  
         H         H         0.57078   0.52268   0.17077   0.113358  
         H         H         0.60462   0.47435   0.16992   0.104148  
         H         H         0.66993   0.64413   0.20402   0.122854  
         H         H         0.72048   0.72653   0.20774   0.108627  
         H         H         0.64186   0.75105   0.80000   0.103979  
         H         H         0.59155   0.66938   0.79913   0.113106  
         H         H         0.77498   0.79139   0.02910   0.106270  
         H         H         0.79136   0.92472   0.98980   0.113748  
         H         H         0.66082   0.80934   0.96985   0.112134  
         H         H         0.34774   0.60394   0.94270   0.065131  
         H         H         0.72751   0.93570   0.95801   0.068825  
         H         H         0.32179   0.63291   0.14204   0.110622  
         H         H         0.28565   0.68017   0.13999   0.110985  
         H         H         0.16972   0.57760   0.89990   0.115382  
         H         H         0.20505   0.53012   0.90701   0.120377  
         H         H         0.69738   0.96522   0.11383   0.114771  
         H         H         0.66062   0.01151   0.10209   0.119089  
         H         H         0.54852   0.91041   0.83722   0.110041  
         H         H         0.58527   0.86367   0.85091   0.108752  
         H         H         0.14251   0.60669   0.06141   0.068998  
         H         H         0.51791   0.93828   0.00633   0.064739  
         H         H         0.16551   0.96868   0.19598   0.109301  
         H         H         0.20019   0.92105   0.18630   0.122111  
         H         H         0.18953   0.89550   0.80981   0.121719  
         H         H         0.13894   0.81323   0.81922   0.107936  
         H         H         0.22814   0.79161   0.17898   0.100783  
         H         H         0.27863   0.87300   0.16531   0.113671  
         H         H         0.31247   0.90203   0.84999   0.113803  
         H         H         0.39236   0.93356   0.85421   0.103858  
         H         H         0.32688   0.01372   0.11271   0.113033  
         H         H         0.08883   0.74622   0.98055   0.105719  
         H         H         0.07720   0.61492   0.02755   0.115101  
         H         H         0.20610   0.73327   0.02407   0.112685  
         H         H         0.45448   0.94833   0.00224   0.104365  
         H         H         0.01774   0.68288   0.97830   0.064618  
         H         H         0.84644   0.85235   0.03180   0.063207  
         H         H         0.91141   0.87575   0.10607   0.111912  
         H         H         0.99333   0.91269   0.09576   0.118623  
         H         H         0.00112   0.03960   0.91382   0.116193  
         H         H         0.91914   0.00277   0.93049   0.115077  
         H         H         0.95794   0.64757   0.15369   0.111785  
         H         H         0.87592   0.61473   0.14355   0.119202  
         H         H         0.86476   0.51219   0.83049   0.113784  
         H         H         0.94637   0.54458   0.84348   0.116237  
         H         H         0.80353   0.47703   0.01226   0.075025  
         C         C         0.83603   0.87797   0.02032   0.071113  
         C         C         0.90948   0.93715   0.01651   0.197380  
         C         C         0.93072   0.91160   0.06475   -0.170437           
         C         C         0.97652   0.93198   0.05978   -0.150692           
         C         C         0.00294   0.97852   0.00959   0.202689  
         C         C         0.98177   0.00401   0.95992   -0.173287           
         C         C         0.93599   0.98356   0.96643   -0.142132           
         C         C         0.07535   0.03802   0.02571   0.074446  
         C         C         0.12332   0.05770   0.01768   0.057386  
         C         C         0.14286   0.03038   0.01325   -0.156695           
         C         C         0.18878   0.04943   0.00378   0.075156  
         C         C         0.21508   0.09669   -0.00193  -0.155804           
         C         C         0.19626   0.12439   0.00345   0.065617  
         C         C         0.15005   0.10454   0.01361   -0.163350           
         C         C         0.22499   0.17317   0.00392   0.083122  
         C         C         0.20925   0.02071   0.00098   0.049622  
         C         C         0.19297   0.97936   0.10616   -0.123684           
         C         C         0.21231   0.95244   0.10152   -0.180458           
         C         C         0.24798   0.96556   0.98746   0.169766  
         C         C         0.26427   0.00653   0.88087   -0.168389           
         C         C         0.24549   0.03379   0.89017   -0.116589           
         C         C         0.23784   0.89000   0.98550   0.170066  
         C         C         0.31322   0.95550   0.98027   0.177926  
         C         C         0.19782   0.87245   0.88990   -0.187819           
         C         C         0.16924   0.82607   0.89728   -0.125631           
         C         C         0.17971   0.79571   -0.00174  0.046556  
         C         C         0.21965   0.81386   0.09423   -0.110904           
         C         C         0.24819   0.85998   0.08866   -0.181965           
         C         C         0.33285   0.93338   0.90955   -0.180771           
         C         C         0.37854   0.95138   0.91354   -0.116368           
         C         C         0.40669   0.99226   0.98643   0.037162  
         C         C         0.38660   0.01427   0.05459   -0.105561           
         C         C         0.34107   0.99642   0.05298   -0.180245           
         C         C         0.15112   0.74633   0.00341   0.070604  
         C         C         0.45519   0.01187   0.99182   0.078031  
         C         C         0.10469   0.72556   0.99248   -0.173583           
         C         C         0.07816   0.67847   0.00056   0.060851  
         C         C         0.09822   0.65139   0.02058   -0.159185           
         C         C         0.14435   0.67148   0.02826   0.064928  
         C         C         0.17035   0.71870   0.01978   -0.144307           
         C         C         0.47522   0.98479   -0.00303  -0.174813           
         C         C         0.52142   0.00381   0.99525   0.058175  
         C         C         0.54830   0.05078   0.99374   -0.156533           
         C         C         0.52911   0.07814   0.99315   0.063450  
         C         C         0.48285   0.05856   0.99059   -0.136296           
         C         C         0.03011   0.65879   0.99012   0.068684  
         C         C         0.95780   0.59899   0.99407   0.196811  
         C         C         0.93749   0.61844   0.08058   -0.176453           
         C         C         0.89182   0.60004   0.07659   -0.155268           
         C         C         0.86466   0.56102   0.98975   0.198353  
         C         C         0.88494   0.54148   0.90331   -0.170889           
         C         C         0.93065   0.55983   0.90815   -0.150166           
         C         C         0.79187   0.50170   0.00069   0.075411  
         C         C         0.55763   0.12688   0.99152   0.083053  
         C         C         0.23804   0.24634   0.01446   0.202655  
         C         C         0.57116   0.20055   0.98279   0.189277  
         C         C         0.60891   0.21773   0.09312   -0.170293           
         C         C         0.63650   0.26386   0.09581   -0.145896           
         C         C         0.62698   0.29455   0.99183   0.200994  
         C         C         0.58925   0.27749   0.88110   -0.178056           
         C         C         0.56157   0.23121   0.87849   -0.155631           
         C         C         0.27545   0.26403   0.12658   -0.178623           
         C         C         0.30275   0.31042   0.12701   -0.156864           
         C         C         0.29326   0.34065   0.01888   0.190202  
         C         C         0.25563   0.32280   0.90793   -0.172416           
         C         C         0.22825   0.27653   0.90801   -0.148370           
         C         C         0.30793   0.41502   -0.00024  0.078675  
         C         C         0.33706   0.46380   0.99063   0.063015  
         C         C         0.64128   0.36807   0.00086   0.085902  
         C         C         0.67045   0.41669   0.00162   0.065226  
         C         C         0.38336   0.48322   0.98974   -0.136650           
         C         C         0.41116   0.53008   0.97418   0.076839  
         C         C         0.39130   0.55743   0.96087   -0.173446           
         C         C         0.34521   0.53859   0.96982   0.056235  
         C         C         0.31815   0.49154   0.98259   -0.153649           
         C         C         0.71671   0.43596   0.00226   -0.158365           
         C         C         0.74380   0.48275   -0.00161  0.054894  
         C         C         0.72433   0.51037   0.99471   -0.158015           
         C         C         0.67832   0.49184   0.99528   0.072418  
         C         C         0.65177   0.44468   -0.00103  -0.157354           
         C         C         0.45974   0.54991   0.97615   0.039637  
         C         C         0.65792   0.52074   0.99305   0.049254  
         C         C         0.47996   0.52798   0.90820   -0.109969           
         C         C         0.52552   0.54567   0.91237   -0.180129           
         C         C         0.55306   0.58613   0.98860   0.177091  
         C         C         0.53335   0.60838   0.05733   -0.181747           
         C         C         0.48773   0.59069   0.04985   -0.116040           
         C         C         0.67669   0.56348   0.89707   -0.121353           
         C         C         0.65731   0.59055   0.89547   -0.181135           
         C         C         0.61872   0.57608   0.99374   0.173023  
         C         C         0.59996   0.53368   0.09116   -0.172255           
         C         C         0.61901   0.50645   0.08892   -0.118365           
         C         C         0.62787   0.65127   -0.00067  0.167986  
         C         C         0.66443   0.66789   0.11461   -0.184991           
         C         C         0.69285   0.71416   0.11497   -0.126002           
         C         C         0.68520   0.74503   0.00271   0.047998  
         C         C         0.64812   0.72793   0.89006   -0.114902           
         C         C         0.61996   0.68188   0.88747   -0.177038           
         C         C         0.71433   0.79418   0.00155   0.070939  
         C         C         0.76047   0.81328   0.01748   -0.175121           
         C         C         0.78829   0.86013   0.01176   0.064331  
         C         C         0.76953   0.88843   0.99363   -0.158830           
         C         C         0.72360   0.86992   0.98050   0.065208  
         C         C         0.69639   0.82292   0.98146   -0.145078           
         C         C         0.32561   0.56750   0.97252   0.068843  
         C         C         0.70411   0.89926   0.97052   0.083322  
         C         C         0.26610   0.57864   0.01965   0.195022  
         C         C         0.64394   0.91134   0.97866   0.199266  
         C         C         0.28869   0.62109   0.08771   -0.182149           
         C         C         0.26854   0.64732   0.08827   -0.155046           
         C         C         0.22510   0.63190   0.02432   0.199348  
         C         C         0.20250   0.58932   0.95754   -0.163815           
         C         C         0.22232   0.56286   0.95919   -0.147980           
         C         C         0.66519   0.95336   0.05029   -0.161898           
         C         C         0.64462   0.97925   0.04559   -0.150787           
         C         C         0.60182   0.96390   0.97377   0.193786  
         C         C         0.58073   0.92207   0.90036   -0.176538           
         C         C         0.60128   0.89614   0.90571   -0.151577           
         C         C         0.16502   0.64325   0.04038   0.086119  
         C         C         0.54103   0.97486   0.99337   0.069752  
         C         C         0.83401   0.38808   0.49473   0.071433  
         C         C         0.90632   0.44836   0.47461   0.197797  
         C         C         0.92712   0.42430   0.43163   -0.173470           
         C         C         0.97283   0.44378   0.43848   -0.148052           
         C         C         -0.00021  0.48836   0.48273   0.199353  
         C         C         0.97905   0.51261   0.52392   -0.167424           
         C         C         0.93327   0.49304   0.51795   -0.143329           
         C         C         0.07311   0.54736   0.46707   0.074849  
         C         C         0.12097   0.56527   0.47351   0.055645  
         C         C         0.13962   0.53697   0.47335   -0.157750           
         C         C         0.18554   0.55472   0.47740   0.071855  
         C         C         0.21268   0.60152   0.48326   -0.158049           
         C         C         0.19481   0.63004   0.48581   0.065983  
         C         C         0.14870   0.61172   0.47974   -0.162855           
         C         C         0.22477   0.67830   0.49128   0.082547  
         C         C         0.20573   0.52577   0.47635   0.046487  
         C         C         0.18695   0.48753   0.38074   -0.116688           
         C         C         0.20643   0.46062   0.38076   -0.177190           
         C         C         0.24492   0.47050   0.48053   0.172098  
         C         C         0.26390   0.50852   0.57684   -0.176899           
         C         C         0.24486   0.53587   0.57199   -0.121357           
         C         C         0.23511   0.39482   0.48999   0.169335  
         C         C         0.31023   0.46039   0.48371   0.177342  
         C         C         0.19741   0.37372   0.59874   -0.182941           
         C         C         0.16925   0.32738   0.60344   -0.123651           
         C         C         0.17784   0.30059   0.50208   0.046404  
         C         C         0.21557   0.32212   0.39309   -0.112827           
         C         C         0.24372   0.36844   0.38681   -0.177506           
         C         C         0.33004   0.43568   0.56170   -0.181597           
         C         C         0.37576   0.45412   0.55850   -0.115633           
         C         C         0.40354   0.49795   0.48042   0.040830  
         C         C         0.38321   0.52232   0.40404   -0.110025           
         C         C         0.33766   0.50403   0.40350   -0.174149           
         C         C         0.14902   0.25121   0.51453   0.068947  
         C         C         0.45207   0.51823   0.47921   0.075366  
         C         C         0.10299   0.23112   0.53816   -0.175772           
         C         C         0.07560   0.18415   0.55134   0.063351  
         C         C         0.09464   0.15652   0.54629   -0.157086           
         C         C         0.14033   0.17592   0.52464   0.064574  
         C         C         0.16719   0.22313   0.50703   -0.142518           
         C         C         0.47210   0.49151   0.47315   -0.171678           
         C         C         0.51820   0.51011   0.48483   0.059883  
         C         C         0.54512   0.55681   0.49118   -0.151431           
         C         C         0.52595   0.58422   0.49024   0.061158  
         C         C         0.47966   0.56470   0.48745   -0.137551           
         C         C         0.02782   0.16510   0.56632   0.071184  
         C         C         0.95490   0.10608   0.56286   0.198827  
         C         C         0.93423   0.13098   0.49490   -0.176355           
         C         C         0.88853   0.11169   0.50130   -0.151679           
         C         C         0.86168   0.06679   0.57230   0.199573  
         C         C         0.88240   0.04198   0.64109   -0.171190           
         C         C         0.92807   0.06114   0.63288   -0.147880           
         C         C         0.78931   0.00763   0.55502   0.071610  
         C         C         0.55500   0.63281   0.49372   0.082642  
         C         C         0.24028   0.75239   0.49763   0.197297  
         C         C         0.56988   0.70682   0.49785   0.191494  
         C         C         0.60761   0.72971   0.38784   -0.170728           
         C         C         0.63542   0.77595   0.38955   -0.143995           
         C         C         0.62626   0.80108   0.49848   0.198128  
         C         C         0.58878   0.77813   0.60957   -0.179496           
         C         C         0.56082   0.73193   0.60712   -0.155078           
         C         C         0.27908   0.77498   0.39370   -0.176674           
         C         C         0.30639   0.82137   0.39332   -0.153832           
         C         C         0.29523   0.84680   0.49227   0.190437  
         C         C         0.25678   0.82410   0.59806   -0.170470           
         C         C         0.22972   0.77776   0.59917   -0.140582           
         C         C         0.30701   0.92002   0.48076   0.084738  
         C         C         0.33512   0.96881   0.48104   0.062024  
         C         C         0.64011   0.87454   0.50205   0.082685  
         C         C         0.66869   0.92282   0.51603   0.064085  
         C         C         0.38139   0.98843   0.48277   -0.138055           
         C         C         0.40916   0.03506   0.48320   0.076720  
         C         C         0.38913   0.06205   0.47938   -0.174373           
         C         C         0.34290   0.04322   0.47292   0.059854  
         C         C         0.31581   0.99621   0.47569   -0.154381           
         C         C         0.71483   0.94216   0.53058   -0.162771           
         C         C         0.74127   0.98824   0.55002   0.057414  
         C         C         0.72129   0.01512   0.55636   -0.153553           
         C         C         0.67543   0.99664   0.53841   0.070609  
         C         C         0.64954   0.95029   0.51822   -0.156419           
         C         C         0.45762   0.05468   0.48558   0.036520  
         C         C         0.65464   0.02517   0.53625   0.048780  
         C         C         0.47707   0.02919   0.55922   -0.106609           
         C         C         0.52253   0.04705   0.56680   -0.176300           
         C         C         0.55105   0.09168   0.49860   0.179309  
         C         C         0.53210   0.11727   0.42098   -0.179465           
         C         C         0.48641   0.09905   0.41546   -0.116707           
         C         C         0.66972   0.06037   0.64679   -0.115742           
         C         C         0.65061   0.08777   0.64016   -0.174240           
         C         C         0.61623   0.08123   0.51970   0.168934  
         C         C         0.60089   0.04619   0.40912   -0.171827           
         C         C         0.61949   0.01834   0.41948   -0.125209           
         C         C         0.62640   0.15694   0.51304   0.168239  
         C         C         0.66699   0.17817   0.42246   -0.182643           
         C         C         0.69536   0.22435   0.42498   -0.121608           
         C         C         0.68434   0.25092   0.51672   0.043914  
         C         C         0.64404   0.22908   0.60965   -0.109775           
         C         C         0.61554   0.18303   0.60803   -0.182018           
         C         C         0.71276   0.30034   0.51052   0.069534  
         C         C         0.75924   0.32114   0.50458   -0.173542           
         C         C         0.78597   0.36822   0.49510   0.061892  
         C         C         0.76592   0.39511   0.49170   -0.157436           
         C         C         0.71983   0.37504   0.50059   0.065156  
         C         C         0.69358   0.32782   0.50877   -0.139325           
         C         C         0.32414   0.07308   0.46420   0.068611  
         C         C         0.69995   0.40363   0.50359   0.087018  
         C         C         0.26389   0.08614   0.46138   0.190518  
         C         C         0.64003   0.41563   0.52961   0.197317  
         C         C         0.28766   0.13206   0.49350   -0.179522           
         C         C         0.26592   0.15648   0.50009   -0.157745           
         C         C         0.21963   0.13606   0.47893   0.202179  
         C         C         0.19585   0.09034   0.44559   -0.160868           
         C         C         0.21771   0.06606   0.43785   -0.131546           
         C         C         0.66407   0.46317   0.51450   -0.155584           
         C         C         0.64266   0.48779   0.52243   -0.138375           
         C         C         0.59636   0.46632   0.54287   0.199352  
         C         C         0.57235   0.41883   0.56436   -0.183942           
         C         C         0.59395   0.39418   0.55635   -0.154289           
         C         C         0.16000   0.14707   0.52314   0.085172  
         C         C         0.53731   0.48055   0.49218   0.070464  
         N         N         0.86369   0.92071   0.01092   -0.294367           
         N         N         0.04877   0.99580   0.00894   -0.292301           
         N         N         0.26674   0.93721   0.98023   -0.138124           
         N         N         0.00361   0.61588   0.99276   -0.284788           
         N         N         0.81892   0.54455   0.99336   -0.291230           
         N         N         0.20933   0.20019   0.00525   -0.270623           
         N         N         0.54222   0.15442   0.97305   -0.293734           
         N         N         0.32261   0.38689   0.02438   -0.293022           
         N         N         0.65635   0.34053   0.00116   -0.270369           
         N         N         0.59947   0.60412   -0.00446  -0.140185           
         N         N         0.28423   0.55069   0.00887   -0.277970           
         N         N         0.66182   0.88290   0.97662   -0.283844           
         N         N         0.20730   0.66039   0.02717   -0.289904           
         N         N         0.58331   0.99169   0.97994   -0.279581           
         N         N         0.86044   0.43115   0.47695   -0.290566           
         N         N         0.04551   0.50461   0.48465   -0.294594           
         N         N         0.26380   0.44205   0.48466   -0.137480           
         N         N         0.00061   0.12256   0.56116   -0.287137           
         N         N         0.81587   0.05000   0.56875   -0.289656           
         N         N         0.21049   0.70616   0.50136   -0.275024           
         N         N         0.54021   0.66034   0.50354   -0.292043           
         N         N         0.32342   0.89351   0.48158   -0.290040           
         N         N         0.65554   0.84746   0.49629   -0.271834           
         N         N         0.59746   0.10997   0.50917   -0.140907           
         N         N         0.28190   0.05770   0.45792   -0.288734           
         N         N         0.65789   0.38713   0.52301   -0.299768           
         N         N         0.20136   0.16389   0.48746   -0.286362           
         N         N         0.57806   0.49460   0.53810   -0.285896 

