
##########################################################################
#               Crystallographic Information Format file
#               Produced by PyCifRW module
#
#  This is a CIF file.  CIF has been adopted by the International
#  Union of Crystallography as the standard for data archiving and
#  transmission.
#
#  For information on this file format, follow the CIF links at
#  http://www.iucr.org
##########################################################################

data_image0

_cell_length_a                          22.6764
_cell_length_b                          22.6017
_cell_length_c                          9.5756
_cell_angle_alpha                       86.6839
_cell_angle_beta                        95.0581
_cell_angle_gamma                       120.288
_symmetry_space_group_name_H-M          'P 1'
_space_group_name_Hall                  'P 1'
loop_
  _atom_site_type_symbol
  _atom_site_label
  _atom_site_fract_x
  _atom_site_fract_y
  _atom_site_fract_z
  _atom_site_charge
         H         H         0.37352   0.45101   0.18751   0.146824  
         H         H         0.54813   0.92437   0.19509   0.146653  
         H         H         0.07761   0.62572   0.19518   0.146215  
         H         H         0.62412   0.54936   0.19470   0.145946  
         H         H         0.45028   0.07682   0.18944   0.146523  
         H         H         0.91885   0.37570   0.18996   0.144941  
         H         H         0.65883   0.48362   0.22726   0.114226  
         H         H         0.51732   0.17736   0.21497   0.114791  
         H         H         0.82177   0.34333   0.20597   0.114976  
         H         H         0.34023   0.51688   0.20273   0.114425  
         H         H         0.48126   0.82300   0.20265   0.114233  
         H         H         0.17655   0.65765   0.21045   0.114060  
         C         C         0.54297   0.57051   0.19440   -0.174825           
         C         C         0.42889   0.97380   0.19455   -0.176883           
         C         C         0.02269   0.45511   0.19121   -0.176623           
         C         C         0.45491   0.42974   0.19718   -0.178647           
         C         C         0.56935   0.02716   0.19528   -0.174516           
         C         C         0.97442   0.54591   0.20270   -0.170508           
         C         C         0.56900   0.52628   0.19679   -0.176357           
         C         C         0.47319   0.04450   0.19398   -0.175748           
         C         C         0.95285   0.43078   0.19535   -0.178283           
         C         C         0.42883   0.47403   0.19240   -0.175810           
         C         C         0.52517   0.95649   0.19629   -0.176393           
         C         C         0.04419   0.57043   0.19773   -0.177514           
         C         C         0.52636   0.45481   0.20310   0.207971  
         C         C         0.54458   0.07347   0.19863   0.206723  
         C         C         0.92653   0.47468   0.20586   0.208664  
         C         C         0.47173   0.54549   0.19524   0.207264  
         C         C         0.45399   0.92750   0.20020   0.208995  
         C         C         0.07099   0.52632   0.19681   0.207848  
         C         C         0.61975   0.42953   0.22372   0.123196  
         C         C         0.57107   0.19234   0.21302   0.125232  
         C         C         0.80787   0.38251   0.21512   0.120896  
         C         C         0.37927   0.57099   0.20309   0.123035  
         C         C         0.42772   0.80821   0.20776   0.124090  
         C         C         0.19070   0.61829   0.20817   0.121664  
         S         S         0.60534   0.65951   0.19880   1.174500  
         S         S         0.33991   0.94669   0.19420   1.172839  
         S         S         0.04449   0.38953   0.18369   1.174195  
         S         S         0.39280   0.34073   0.20526   1.175912  
         S         S         0.65838   0.05507   0.19596   1.169947  
         S         S         0.95062   0.60962   0.21294   1.175374  
         O         O         0.41602   0.30647   0.10033   -0.503955           
         O         O         0.68388   0.11038   0.07303   -0.510805           
         O         O         0.88919   0.58895   0.09779   -0.504686           
         O         O         0.57707   0.69301   0.08228   -0.506536           
         O         O         0.30353   0.88705   0.08466   -0.504282           
         O         O         0.10396   0.42028   0.08096   -0.508117           
         O         O         0.32643   0.33285   0.16538   -0.485397           
         O         O         0.66557   0.99707   0.16742   -0.486416           
         O         O         0.00880   0.67560   0.18246   -0.487234           
         O         O         0.66997   0.66746   0.16669   -0.487711           
         O         O         0.33183   0.00477   0.15320   -0.486497           
         O         O         0.98463   0.32835   0.13018   -0.489172           
         O         O         0.40574   0.31480   0.34058   -0.541118           
         O         O         0.69127   0.09548   0.32218   -0.528470           
         O         O         0.91773   0.59599   0.34466   -0.549930           
         O         O         0.59863   0.68542   0.32869   -0.541849           
         O         O         0.31623   0.91050   0.32684   -0.542089           
         O         O         0.07809   0.38680   0.31916   -0.530259           
         H         H         0.40435   0.31346   -0.00130  0.408065  
         H         H         0.68383   0.09056   0.98092   0.398837  
         H         H         0.90597   0.59774   0.00060   0.408207  
         H         H         0.59040   0.68953   0.98653   0.406059  
         H         H         0.31007   0.90513   0.98485   0.407771  
         H         H         0.08787   0.40642   0.97937   0.400778  
         N         N         0.55292   0.41083   0.21425   -0.240023           
         H         H         0.52184   0.35693   0.21354   0.272975  
         N         N         0.58896   0.14417   0.20484   -0.239920           
         H         H         0.64264   0.16727   0.20371   0.273172  
         N         N         0.85683   0.44922   0.21734   -0.235500           
         H         H         0.83550   0.48066   0.22749   0.273636  
         N         N         0.44570   0.58962   0.19896   -0.238968           
         H         H         0.47681   0.64351   0.19931   0.272991  
         N         N         0.40995   0.85680   0.20811   -0.239031           
         H         H         0.35664   0.83442   0.21335   0.273539  
         N         N         0.14144   0.55169   0.20118   -0.238096           
         H         H         0.16292   0.51998   0.19881   0.275571  
         C         C         0.59250   0.30885   0.22336   0.354799  
         C         C         0.64163   0.38222   0.22791   -0.239719           
         C         C         0.69170   0.28628   0.21618   0.354569  
         C         C         0.61879   0.26171   0.21848   -0.239140           
         C         C         0.71562   0.40917   0.23261   0.356749  
         C         C         0.73914   0.36038   0.22260   -0.238951           
         C         C         0.40670   0.69161   0.20932   0.354255  
         C         C         0.35761   0.61821   0.20745   -0.240516           
         C         C         0.30737   0.71427   0.21698   0.355571  
         C         C         0.38026   0.73876   0.21227   -0.238567           
         C         C         0.28371   0.59112   0.20927   0.355287  
         C         C         0.25989   0.64009   0.21186   -0.239605           
         O         O         0.52898   0.28646   0.22273   -0.433461           
         O         O         0.71353   0.24507   0.20877   -0.433803           
         O         O         0.75766   0.47264   0.24237   -0.437256           
         O         O         0.47017   0.71403   0.20823   -0.435078           
         O         O         0.28573   0.75562   0.22360   -0.434856           
         O         O         0.24191   0.52744   0.20799   -0.435884           
         H         H         0.37794   0.45510   0.67580   0.145154  
         H         H         0.54681   0.92251   0.68839   0.145291  
         H         H         0.08100   0.62483   0.68419   0.145195  
         H         H         0.62780   0.54932   0.69285   0.144974  
         H         H         0.45494   0.07927   0.68586   0.144803  
         H         H         0.92151   0.37520   0.65901   0.146864  
         H         H         0.65900   0.48208   0.67089   0.113869  
         H         H         0.52111   0.17723   0.71753   0.114069  
         H         H         0.82617   0.34403   0.71233   0.113967  
         H         H         0.34543   0.51990   0.69101   0.113330  
         H         H         0.48250   0.82447   0.70741   0.112696  
         H         H         0.17872   0.65597   0.71402   0.113022  
         C         C         0.54794   0.57245   0.68946   -0.175778           
         C         C         0.43092   0.97555   0.69263   -0.173993           
         C         C         0.02562   0.45435   0.67574   -0.178988           
         C         C         0.45785   0.43178   0.68620   -0.174802           
         C         C         0.57126   0.02619   0.69308   -0.175289           
         C         C         0.97738   0.54525   0.68121   -0.168772           
         C         C         0.57264   0.52709   0.69088   -0.175954           
         C         C         0.47670   0.04591   0.69222   -0.178670           
         C         C         0.95544   0.43016   0.66886   -0.177998           
         C         C         0.43317   0.47724   0.68252   -0.178587           
         C         C         0.52546   0.95583   0.69332   -0.178580           
         C         C         0.04735   0.56961   0.68183   -0.177991           
         C         C         0.52908   0.45562   0.69291   0.208471  
         C         C         0.54799   0.07359   0.69907   0.206448  
         C         C         0.92897   0.47417   0.67622   0.208978  
         C         C         0.47680   0.54850   0.68852   0.207572  
         C         C         0.45460   0.92807   0.69930   0.206957  
         C         C         0.07406   0.52541   0.68390   0.208699  
         C         C         0.62095   0.42870   0.69065   0.121631  
         C         C         0.57493   0.19229   0.71703   0.120422  
         C         C         0.81074   0.38261   0.69790   0.123573  
         C         C         0.38438   0.57394   0.69726   0.122479  
         C         C         0.42884   0.80921   0.71234   0.123440  
         C         C         0.19341   0.61718   0.70803   0.122504  
         S         S         0.61190   0.66099   0.69866   1.176163  
         S         S         0.34275   0.95183   0.68973   1.177655  
         S         S         0.04902   0.38972   0.68220   1.172199  
         S         S         0.39249   0.34367   0.69415   1.177872  
         S         S         0.65903   0.04924   0.68754   1.169411  
         S         S         0.95585   0.60913   0.71009   1.174647  
         O         O         0.41711   0.30476   0.60550   -0.504953           
         O         O         0.68952   0.11478   0.58817   -0.505978           
         O         O         0.89163   0.59238   0.60532   -0.498418           
         O         O         0.58329   0.69693   0.58922   -0.506775           
         O         O         0.30442   0.88814   0.59038   -0.505903           
         O         O         0.10757   0.41740   0.57767   -0.507339           
         O         O         0.32924   0.33848   0.63548   -0.491169           
         O         O         0.66045   0.99308   0.62622   -0.491423           
         O         O         0.01366   0.67563   0.68115   -0.488314           
         O         O         0.67558   0.66890   0.65994   -0.487183           
         O         O         0.33657   0.00956   0.63598   -0.488835           
         O         O         0.98973   0.32595   0.63774   -0.488338           
         O         O         0.39699   0.31985   0.83711   -0.545213           
         O         O         0.69327   0.07405   0.82565   -0.523973           
         O         O         0.92834   0.59209   0.84805   -0.554463           
         O         O         0.60827   0.68524   0.83345   -0.541781           
         O         O         0.31902   0.92263   0.82692   -0.545850           
         O         O         0.08471   0.39387   0.81919   -0.530153           
         H         H         0.40772   0.30948   0.50093   0.403743  
         H         H         0.68729   0.10186   0.48743   0.399528  
         H         H         0.90523   0.60261   0.50554   0.409182  
         H         H         0.59288   0.69258   0.49044   0.406380  
         H         H         0.30918   0.90238   0.48777   0.405372  
         H         H         0.08957   0.40280   0.47709   0.400149  
         N         N         0.55508   0.41100   0.70167   -0.239153           
         H         H         0.52434   0.35783   0.71761   0.276248  
         N         N         0.59288   0.14399   0.71037   -0.239592           
         H         H         0.64656   0.16674   0.71233   0.275505  
         N         N         0.85878   0.44890   0.67968   -0.235148           
         H         H         0.83685   0.48044   0.66803   0.274388  
         N         N         0.45103   0.59282   0.69498   -0.238198           
         H         H         0.48238   0.64637   0.70050   0.274305  
         N         N         0.41039   0.85743   0.71009   -0.236832           
         H         H         0.35723   0.83501   0.71592   0.274875  
         N         N         0.14459   0.55065   0.69458   -0.238513           
         H         H         0.16634   0.51932   0.68998   0.276096  
         C         C         0.59581   0.30886   0.72354   0.355644  
         C         C         0.64330   0.38169   0.70100   -0.239500           
         C         C         0.69525   0.28628   0.71590   0.356111  
         C         C         0.62235   0.26169   0.72052   -0.237548           
         C         C         0.71650   0.40845   0.68737   0.355729  
         C         C         0.74166   0.36025   0.70090   -0.239948           
         C         C         0.41022   0.69357   0.71525   0.356387  
         C         C         0.36192   0.62020   0.70646   -0.238933           
         C         C         0.30942   0.71409   0.72328   0.355927  
         C         C         0.38244   0.73965   0.71823   -0.239311           
         C         C         0.28771   0.59214   0.70465   0.356986  
         C         C         0.26279   0.63992   0.71328   -0.238914           
         O         O         0.53363   0.28696   0.74203   -0.436830           
         O         O         0.71744   0.24483   0.72183   -0.436197           
         O         O         0.75683   0.47156   0.66698   -0.438597           
         O         O         0.47395   0.71689   0.71815   -0.437677           
         O         O         0.28704   0.75462   0.73341   -0.437401           
         O         O         0.24655   0.52856   0.69504   -0.435136 

