
##########################################################################
#               Crystallographic Information Format file
#               Produced by PyCifRW module
#
#  This is a CIF file.  CIF has been adopted by the International
#  Union of Crystallography as the standard for data archiving and
#  transmission.
#
#  For information on this file format, follow the CIF links at
#  http://www.iucr.org
##########################################################################

data_image0

_cell_length_a                          22.5421
_cell_length_b                          22.2174
_cell_length_c                          9.32478
_cell_angle_alpha                       93.8271
_cell_angle_beta                        120.691
_cell_angle_gamma                       119.14
_symmetry_space_group_name_H-M          'P 1'
_space_group_name_Hall                  'P 1'
loop_
  _atom_site_type_symbol
  _atom_site_label
  _atom_site_fract_x
  _atom_site_fract_y
  _atom_site_fract_z
  _atom_site_charge
         H         H         0.36943   0.44866   0.20187   0.134144  
         H         H         0.57024   0.94237   0.31675   0.132478  
         H         H         0.12159   0.64746   0.41401   0.133013  
         H         H         0.62533   0.56010   0.21503   0.142622  
         H         H         0.42919   0.06806   0.12663   0.145094  
         H         H         0.88936   0.36973   0.06257   0.139782  
         H         H         0.66075   0.48997   0.21044   0.111707  
         H         H         0.51985   0.18251   0.20802   0.108153  
         H         H         0.81126   0.33586   0.16126   0.111614  
         H         H         0.33312   0.51575   0.20966   0.110249  
         H         H         0.47156   0.82346   0.20409   0.102724  
         H         H         0.19116   0.67463   0.28328   0.112515  
         C         C         0.53813   0.57584   0.20951   -0.156562           
         C         C         0.42132   0.97457   0.18661   -0.178790           
         C         C         0.01855   0.46181   0.17283   -0.143920           
         C         C         0.45788   0.43306   0.21234   -0.155869           
         C         C         0.57892   0.03628   0.25537   -0.141400           
         C         C         0.99279   0.55527   0.30813   -0.150950           
         C         C         0.56927   0.53453   0.21208   -0.179414           
         C         C         0.46225   0.04249   0.17250   -0.179571           
         C         C         0.94036   0.43033   0.14294   -0.170797           
         C         C         0.42533   0.47304   0.20447   -0.158697           
         C         C         0.53848   0.96915   0.27249   -0.164941           
         C         C         0.07038   0.58668   0.33638   -0.161647           
         C         C         0.52896   0.46251   0.21191   0.206251  
         C         C         0.54143   0.07410   0.20572   0.216440  
         C         C         0.92751   0.47645   0.21362   0.214150  
         C         C         0.46380   0.54444   0.19998   0.194960  
         C         C         0.45827   0.93600   0.23682   0.197584  
         C         C         0.08483   0.54069   0.27117   0.183714  
         C         C         0.62089   0.43498   0.20572   0.121421  
         C         C         0.56704   0.19226   0.18888   0.127364  
         C         C         0.79879   0.37681   0.17403   0.118807  
         C         C         0.36898   0.56844   0.20153   0.151291  
         C         C         0.42654   0.81394   0.23039   0.138444  
         C         C         0.20680   0.63521   0.28362   0.137119  
         S         S         0.60605   0.67259   0.24532   1.148584  
         S         S         0.31507   0.93394   0.11260   1.182623  
         S         S         0.03086   0.39826   0.08308   1.162852  
         O         O         0.53993   0.67992   0.07363   -0.544756           
         O         O         0.25624   0.85837   0.93522   -0.514586           
         O         O         0.06837   0.43815   0.98394   -0.551883           
         O         O         0.66518   0.67644   0.21791   -0.482228           
         O         O         0.29510   0.98587   0.06908   -0.493876           
         O         O         0.94373   0.33046   0.93880   -0.498490           
         O         O         0.63695   0.72463   0.41063   -0.492604           
         O         O         0.30824   0.90653   0.24569   -0.563041           
         O         O         0.09787   0.39788   0.23396   -0.505194           
         H         H         0.52362   0.70601   0.11834   0.391055  
         H         H         0.27056   0.87151   0.84994   0.398881  
         H         H         0.13315   0.46624   0.06664   0.377900  
         H         H         0.42738   0.37797   0.21626   0.136614  
         H         H         0.64115   0.06073   0.28463   0.141193  
         H         H         0.98283   0.59110   0.36300   0.135589  
         N         N         0.55611   0.41801   0.20991   -0.233025           
         H         H         0.52443   0.36329   0.20647   0.272336  
         N         N         0.58221   0.14093   0.18660   -0.230588           
         H         H         0.63185   0.15834   0.17712   0.278378  
         N         N         0.85212   0.44690   0.19578   -0.236640           
         H         H         0.83410   0.48105   0.21287   0.273838  
         N         N         0.43017   0.58412   0.18690   -0.219720           
         H         H         0.45934   0.63787   0.18748   0.246982  
         N         N         0.41593   0.86744   0.24888   -0.237799           
         H         H         0.36817   0.85122   0.26441   0.273221  
         N         N         0.16281   0.57162   0.29782   -0.242886           
         H         H         0.18293   0.53836   0.29926   0.261775  
         C         C         0.58821   0.31005   0.18832   0.360706  
         C         C         0.63915   0.38426   0.19515   -0.240366           
         C         C         0.67877   0.27960   0.16221   0.356877  
         C         C         0.61051   0.25924   0.17562   -0.245980           
         C         C         0.71195   0.40910   0.19417   0.358352  
         C         C         0.72941   0.35540   0.17328   -0.251156           
         C         C         0.39928   0.69271   0.21242   0.361692  
         C         C         0.35121   0.61974   0.21407   -0.241247           
         C         C         0.31771   0.72706   0.26632   0.354189  
         C         C         0.38160   0.74560   0.23889   -0.251593           
         C         C         0.28575   0.59825   0.23795   0.361644  
         C         C         0.27066   0.65280   0.26659   -0.259041           
         O         O         0.52679   0.28982   0.19532   -0.464866           
         O         O         0.69506   0.23333   0.14667   -0.472747           
         O         O         0.75876   0.47622   0.21258   -0.465948           
         O         O         0.45538   0.71063   0.18751   -0.488389           
         O         O         0.30307   0.77374   0.28853   -0.462630           
         O         O         0.24255   0.53222   0.23174   -0.491657           
         H         H         0.38425   0.44004   0.72270   0.132020  
         H         H         0.56729   0.92618   0.78025   0.133293  
         H         H         0.11327   0.63721   0.85041   0.135704  
         H         H         0.63631   0.55283   0.72334   0.141998  
         H         H         0.44312   0.06686   0.64916   0.146323  
         H         H         0.89780   0.35620   0.55033   0.141996  
         H         H         0.66951   0.48166   0.70280   0.110564  
         H         H         0.54248   0.18252   0.74199   0.108141  
         H         H         0.81268   0.32300   0.62925   0.115246  
         H         H         0.34087   0.50768   0.71416   0.111111  
         H         H         0.47739   0.81527   0.69711   0.101426  
         H         H         0.20233   0.66948   0.78366   0.106731  
         C         C         0.54877   0.56718   0.71939   -0.153999           
         C         C         0.42942   0.96867   0.69089   -0.179839           
         C         C         0.02376   0.45123   0.65277   -0.146944           
         C         C         0.47283   0.42566   0.72965   -0.158171           
         C         C         0.58013   0.02318   0.73297   -0.144025           
         C         C         0.98606   0.54243   0.74642   -0.153451           
         C         C         0.58116   0.52704   0.72332   -0.185531           
         C         C         0.47203   0.03742   0.68027   -0.177948           
         C         C         0.94397   0.41768   0.61578   -0.165088           
         C         C         0.43934   0.46490   0.72241   -0.159468           
         C         C         0.53884   0.95594   0.74815   -0.164233           
         C         C         0.06567   0.57576   0.78327   -0.167683           
         C         C         0.54362   0.45582   0.72798   0.212295  
         C         C         0.54795   0.06542   0.70080   0.214351  
         C         C         0.92593   0.46294   0.66901   0.213803  
         C         C         0.47605   0.53609   0.71607   0.189954  
         C         C         0.46234   0.92646   0.72716   0.200383  
         C         C         0.08659   0.53078   0.74165   0.187202  
         C         C         0.63472   0.42919   0.71333   0.124905  
         C         C         0.58357   0.18845   0.70644   0.128241  
         C         C         0.80092   0.36433   0.64353   0.126706  
         C         C         0.37953   0.56102   0.71144   0.148495  
         C         C         0.43408   0.80613   0.72851   0.131018  
         C         C         0.21588   0.62870   0.78123   0.126851  
         S         S         0.61130   0.66128   0.73632   1.150680  
         S         S         0.32720   0.93366   0.63533   1.180544  
         S         S         0.04555   0.38951   0.59837   1.165572  
         O         O         0.53772   0.66398   0.57195   -0.542142           
         O         O         0.25946   0.86197   0.44391   -0.515146           
         O         O         0.07862   0.42189   0.48670   -0.546196           
         O         O         0.66178   0.66210   0.68446   -0.486355           
         O         O         0.31536   0.99191   0.62141   -0.495467           
         O         O         0.96309   0.31547   0.46863   -0.495051           
         O         O         0.65034   0.71648   0.90844   -0.493347           
         O         O         0.32106   0.90028   0.76198   -0.561558           
         O         O         0.11781   0.40230   0.76959   -0.521795           
         H         H         0.52492   0.69233   0.62322   0.389445  
         H         H         0.26891   0.87691   0.35349   0.406263  
         H         H         0.14388   0.45481   0.56772   0.380360  
         H         H         0.44354   0.37073   0.73491   0.137008  
         H         H         0.63906   0.04433   0.74941   0.137923  
         H         H         0.97104   0.57758   0.78379   0.138370  
         N         N         0.57367   0.41349   0.73032   -0.230575           
         H         H         0.54715   0.36084   0.74014   0.271398  
         N         N         0.59124   0.13291   0.68586   -0.230317           
         H         H         0.63472   0.14567   0.65913   0.276603  
         N         N         0.85128   0.43291   0.65434   -0.234896           
         H         H         0.83444   0.46777   0.67441   0.272686  
         N         N         0.44319   0.57649   0.70607   -0.216764           
         H         H         0.47548   0.63063   0.71274   0.249043  
         N         N         0.42152   0.85866   0.74316   -0.232057           
         H         H         0.37614   0.84381   0.76562   0.275064  
         N         N         0.16737   0.56294   0.78214   -0.241251           
         H         H         0.18803   0.52991   0.78676   0.258146  
         C         C         0.60784   0.30740   0.71273   0.354757  
         C         C         0.65418   0.37916   0.70499   -0.241934           
         C         C         0.68684   0.27050   0.65309   0.356818  
         C         C         0.62624   0.25454   0.68934   -0.248156           
         C         C         0.72118   0.40048   0.68515   0.355096  
         C         C         0.73582   0.34528   0.65734   -0.257079           
         C         C         0.41081   0.68630   0.72033   0.368686  
         C         C         0.36249   0.61319   0.72164   -0.241840           
         C         C         0.33028   0.72140   0.77636   0.353491  
         C         C         0.39247   0.73911   0.74456   -0.247819           
         C         C         0.29612   0.59182   0.74206   0.360428  
         C         C         0.28180   0.64672   0.77178   -0.251038           
         O         O         0.55227   0.29021   0.73791   -0.463334           
         O         O         0.69759   0.22153   0.62301   -0.468606           
         O         O         0.76559   0.46597   0.69298   -0.466080           
         O         O         0.46776   0.70479   0.69833   -0.488887           
         O         O         0.31698   0.76869   0.80332   -0.461871           
         O         O         0.25216   0.52564   0.73433   -0.492628 

