
##########################################################################
#               Crystallographic Information Format file
#               Produced by PyCifRW module
#
#  This is a CIF file.  CIF has been adopted by the International
#  Union of Crystallography as the standard for data archiving and
#  transmission.
#
#  For information on this file format, follow the CIF links at
#  http://www.iucr.org
##########################################################################

data_image0

_cell_length_a                          29.7679
_cell_length_b                          29.7642
_cell_length_c                          7.96755
_cell_angle_alpha                       60.6441
_cell_angle_beta                        92.1934
_cell_angle_gamma                       120.333
_symmetry_space_group_name_H-M          'P 1'
_space_group_name_Hall                  'P 1'
loop_
  _atom_site_type_symbol
  _atom_site_label
  _atom_site_fract_x
  _atom_site_fract_y
  _atom_site_fract_z
  _atom_site_charge
         N         N         0.39538   0.58769   0.98755   -0.144701           
         N         N         0.41655   0.81188   0.98540   -0.166767           
         N         N         0.19245   0.60662   -0.00358  -0.146725           
         N         N         0.60347   0.41134   0.01778   -0.144078           
         N         N         0.58574   0.19141   0.00476   -0.163821           
         N         N         0.80797   0.39518   0.00654   -0.145558           
         C         C         0.31735   0.61340   0.00079   -0.132083           
         C         C         0.38825   0.70543   0.98891   -0.132692           
         C         C         0.29747   0.68284   0.00230   -0.147403           
         C         C         0.68219   0.38655   0.00733   -0.133640           
         C         C         0.61263   0.29566   0.01034   -0.134245           
         C         C         0.70323   0.31822   0.00316   -0.150151           
         C         C         0.41133   0.63700   0.98784   0.032599  
         C         C         0.36603   0.77434   0.00622   0.031022  
         C         C         0.22479   0.58884   0.00736   0.038189  
         C         C         0.58817   0.36260   0.01478   0.032066  
         C         C         0.63585   0.22771   0.99183   0.026658  
         C         C         0.77466   0.41108   0.00575   0.036969  
         N         N         0.42864   0.56808   0.98877   -0.066673           
         N         N         0.43472   0.86252   -0.00101  -0.063529           
         N         N         0.13910   0.57260   0.00028   -0.060603           
         N         N         0.57005   0.43074   0.01625   -0.068969           
         N         N         0.56763   0.14109   0.98975   -0.064812           
         N         N         0.86111   0.42886   0.00475   -0.061213           
         C         C         0.48254   0.59575   0.00389   0.396691  
         C         C         0.40467   0.88805   0.99126   0.391606  
         C         C         0.11420   0.51865   0.99320   0.398887  
         C         C         0.51626   0.40314   0.00005   0.399003  
         C         C         0.59787   0.11606   0.99437   0.391002  
         C         C         0.88592   0.48267   0.01282   0.398658  
         C         C         0.51151   0.56765   0.00047   -0.057690           
         C         C         0.43347   0.94606   0.98949   -0.063888           
         C         C         0.05620   0.48947   -0.00356  -0.075296           
         C         C         0.48700   0.43096   0.00378   -0.054788           
         C         C         0.56915   0.05816   0.99566   -0.063578           
         C         C         0.94402   0.51217   0.00795   -0.077444           
         C         C         0.48493   0.51286   -0.00066  0.021303  
         C         C         0.48796   0.97389   -0.00401  0.007943  
         C         C         0.02798   0.51556   0.00032   0.023045  
         C         C         0.51348   0.48569   0.00519   0.020845  
         C         C         0.51458   0.03025   0.99016   0.007656  
         C         C         0.97230   0.48625   0.00302   0.021528  
         C         C         0.43049   0.48468   0.99284   -0.073823           
         C         C         0.51636   0.94655   0.00791   -0.061292           
         C         C         0.05426   0.57019   0.00226   -0.056225           
         C         C         0.56790   0.51387   0.01194   -0.073842           
         C         C         0.48623   0.05770   0.97748   -0.059994           
         C         C         0.94612   0.43175   0.00032   -0.052651           
         C         C         0.39981   0.51175   0.98767   0.400831  
         C         C         0.48997   0.88837   0.01234   0.403247  
         C         C         0.11111   0.59951   0.01102   0.409089  
         C         C         0.59863   0.48678   0.01848   0.398936  
         C         C         0.51254   0.11567   0.97438   0.402029  
         C         C         0.88938   0.40257   0.99066   0.409295  
         C         C         0.37167   0.65193   0.99176   0.070208  
         C         C         0.35093   0.72066   -0.00274  0.066663  
         C         C         0.28044   0.62905   0.00362   0.062724  
         C         C         0.62834   0.34834   0.01145   0.072267  
         C         C         0.65029   0.28077   0.00349   0.069622  
         C         C         0.71944   0.37130   0.00526   0.063447  
         H         H         0.45207   0.66780   0.98695   0.110150  
         H         H         0.33385   0.77951   0.03296   0.110425  
         H         H         0.21342   0.54639   0.01812   0.110613  
         H         H         0.54773   0.33182   0.01337   0.111269  
         H         H         0.66798   0.22189   0.97039   0.111537  
         H         H         0.78488   0.45172   0.00554   0.110199  
         O         O         0.50421   0.64020   0.02303   -0.414590           
         O         O         0.35748   0.86411   0.98258   -0.407344           
         O         O         0.13900   0.49653   0.98567   -0.407264           
         O         O         0.49495   0.35894   0.97976   -0.416375           
         O         O         0.64525   0.14037   0.00077   -0.406929           
         O         O         0.86095   0.50440   0.02241   -0.405038           
         O         O         0.35266   0.48833   0.98369   -0.380604           
         O         O         0.51308   0.86323   0.02408   -0.389782           
         O         O         0.13331   0.64302   0.03297   -0.399170           
         O         O         0.64561   0.50999   0.02431   -0.380743           
         O         O         0.48955   0.14093   0.96281   -0.389607           
         O         O         0.86753   0.35956   0.96631   -0.400384           
         C         C         0.97093   0.56654   0.00695   -0.079533           
         C         C         0.02583   0.59551   0.00395   -0.072912           
         H         H         0.94811   0.58544   0.01112   0.134376  
         H         H         0.04687   0.63741   0.00666   0.136195  
         C         C         0.43316   0.40356   -0.00072  -0.073308           
         C         C         0.40500   0.43028   0.99409   -0.074307           
         H         H         0.41385   0.36160   -0.00286  0.131615  
         H         H         0.36303   0.40943   0.98889   0.136534  
         C         C         0.59654   0.03086   0.00477   -0.064820           
         C         C         0.57011   0.97496   0.01274   -0.061446           
         H         H         0.63875   0.05397   0.00583   0.134226  
         H         H         0.59094   0.95290   0.02141   0.135499  
         C         C         0.02934   0.43515   -0.00272  -0.082318           
         C         C         0.97456   0.40645   -0.00130  -0.070465           
         H         H         0.05210   0.41604   0.99449   0.136768  
         H         H         0.95357   0.36465   0.99544   0.132314  
         C         C         0.56539   0.59513   0.00437   -0.071449           
         C         C         0.59348   0.56834   0.01004   -0.074395           
         H         H         0.58470   0.63718   0.00584   0.131247  
         H         H         0.63547   0.58914   0.01499   0.135889  
         C         C         0.40619   0.97357   0.97897   -0.069649           
         C         C         0.43259   0.02944   0.97126   -0.058489           
         H         H         0.36411   0.95067   0.97620   0.137987  
         H         H         0.41177   0.05163   0.96108   0.134738  
         H         H         0.69383   0.42752   0.00804   0.128156  
         H         H         0.57133   0.26575   0.01256   0.125971  
         H         H         0.73294   0.30743   -0.00095  0.126230  
         H         H         0.30511   0.57179   0.00337   0.128559  
         H         H         0.43001   0.73587   0.98185   0.126719  
         H         H         0.26810   0.69405   0.00708   0.127831  
         N         N         0.39565   0.58671   0.48750   -0.142987           
         N         N         0.41601   0.80998   0.48729   -0.163557           
         N         N         0.19225   0.60511   0.49652   -0.144872           
         N         N         0.60416   0.41072   0.51741   -0.142583           
         N         N         0.58510   0.18965   0.50536   -0.166506           
         N         N         0.80797   0.39320   0.50624   -0.144953           
         C         C         0.31710   0.61183   0.50223   -0.134214           
         C         C         0.38794   0.70398   0.48960   -0.134200           
         C         C         0.29716   0.68136   0.50256   -0.147973           
         C         C         0.68243   0.38504   0.50717   -0.130987           
         C         C         0.61237   0.29428   0.51089   -0.133040           
         C         C         0.70289   0.31628   0.50327   -0.148648           
         C         C         0.41129   0.63583   0.48851   0.033543  
         C         C         0.36557   0.77278   0.50650   0.026737  
         C         C         0.22451   0.58711   0.50950   0.038503  
         C         C         0.58859   0.36186   0.51475   0.032327  
         C         C         0.63521   0.22599   0.49227   0.029266  
         C         C         0.77467   0.40905   0.50627   0.036195  
         N         N         0.42916   0.56746   0.48787   -0.070865           
         N         N         0.43428   0.86077   0.49978   -0.063034           
         N         N         0.13884   0.57076   0.50168   -0.064855           
         N         N         0.57073   0.43015   0.51614   -0.067692           
         N         N         0.56707   0.13936   0.49022   -0.061115           
         N         N         0.86105   0.42681   0.50528   -0.061332           
         C         C         0.48306   0.59518   0.50339   0.398405  
         C         C         0.40425   0.88636   0.49141   0.390994  
         C         C         0.11414   0.51700   0.49356   0.400298  
         C         C         0.51698   0.40273   0.49924   0.397224  
         C         C         0.59733   0.11434   0.49491   0.390153  
         C         C         0.88592   0.48091   0.51173   0.398687  
         C         C         0.51223   0.56730   0.49984   -0.057792           
         C         C         0.43303   0.94455   0.48850   -0.065252           
         C         C         0.05616   0.48767   0.49715   -0.077167           
         C         C         0.48785   0.43066   0.50302   -0.056611           
         C         C         0.56854   0.05638   0.49655   -0.066501           
         C         C         0.94392   0.51029   0.50793   -0.075036           
         C         C         0.48576   0.51261   0.49825   0.021302  
         C         C         0.48748   0.97227   0.49544   0.011759  
         C         C         0.02783   0.51359   0.50131   0.022463  
         C         C         0.51429   0.48537   0.50460   0.020214  
         C         C         0.51405   0.02857   0.49003   0.008901  
         C         C         0.97219   0.48426   0.50394   0.021033  
         C         C         0.43140   0.48448   0.49108   -0.073219           
         C         C         0.51586   0.94483   0.50826   -0.062797           
         C         C         0.05394   0.56808   0.50389   -0.054545           
         C         C         0.56862   0.51338   0.51213   -0.073527           
         C         C         0.48570   0.05602   0.47740   -0.060423           
         C         C         0.94609   0.42970   0.50165   -0.053919           
         C         C         0.40054   0.51130   0.48613   0.399894  
         C         C         0.48958   0.88670   0.51248   0.400852  
         C         C         0.11054   0.59711   0.51463   0.410001  
         C         C         0.59937   0.48633   0.51799   0.400414  
         C         C         0.51194   0.11386   0.47519   0.399304  
         C         C         0.88939   0.40053   0.49156   0.409055  
         C         C         0.37142   0.65045   0.49274   0.070483  
         C         C         0.35056   0.71915   0.49761   0.069702  
         C         C         0.28021   0.62754   0.50437   0.064360  
         C         C         0.62846   0.34714   0.51150   0.070360  
         C         C         0.64980   0.27909   0.50392   0.067940  
         C         C         0.71944   0.36944   0.50532   0.062985  
         H         H         0.45195   0.66688   0.48753   0.109226  
         H         H         0.33341   0.77817   0.53152   0.111821  
         H         H         0.21314   0.54429   0.52317   0.109839  
         H         H         0.54803   0.33117   0.51377   0.110533  
         H         H         0.66738   0.22023   0.47072   0.110935  
         H         H         0.78495   0.44953   0.50732   0.110328  
         O         O         0.50454   0.63946   0.52337   -0.414569           
         O         O         0.35703   0.86228   0.48316   -0.407406           
         O         O         0.13908   0.49521   0.48436   -0.407391           
         O         O         0.49557   0.35868   0.47808   -0.415081           
         O         O         0.64473   0.13859   0.50133   -0.406807           
         O         O         0.86111   0.50304   0.51898   -0.404574           
         O         O         0.35337   0.48766   0.48241   -0.380929           
         O         O         0.51271   0.86162   0.52343   -0.389475           
         O         O         0.13226   0.64001   0.53963   -0.401337           
         O         O         0.64643   0.50978   0.52270   -0.380165           
         O         O         0.48883   0.13891   0.46472   -0.387606           
         O         O         0.86763   0.35758   0.46699   -0.399798           
         C         C         0.97070   0.56461   0.50723   -0.078450           
         C         C         0.02549   0.59334   0.50554   -0.073112           
         H         H         0.94795   0.58363   0.51095   0.133496  
         H         H         0.04654   0.63502   0.50947   0.136704  
         C         C         0.43404   0.40329   0.49829   -0.075011           
         C         C         0.40593   0.43008   0.49249   -0.074532           
         H         H         0.41479   0.36129   0.49652   0.134343  
         H         H         0.36397   0.40931   0.48734   0.136024  
         C         C         0.59585   0.02889   0.50706   -0.063500           
         C         C         0.56945   0.97305   0.51472   -0.064147           
         H         H         0.63785   0.05162   0.51064   0.133661  
         H         H         0.59012   0.95065   0.52578   0.139154  
         C         C         0.02943   0.43334   0.49809   -0.077941           
         C         C         0.97459   0.40441   0.50035   -0.071001           
         H         H         0.05237   0.41452   0.49425   0.133626  
         H         H         0.95369   0.36261   0.49713   0.132594  
         C         C         0.56605   0.59461   0.50488   -0.071578           
         C         C         0.59413   0.56775   0.51097   -0.074551           
         H         H         0.58541   0.63660   0.50670   0.130931  
         H         H         0.63605   0.58839   0.51680   0.136170  
         C         C         0.40583   0.97228   0.47660   -0.068588           
         C         C         0.43219   0.02806   0.46963   -0.061895           
         H         H         0.36390   0.94967   0.47200   0.138301  
         H         H         0.41157   0.05053   0.45857   0.136638  
         H         H         0.69443   0.42620   0.50725   0.127558  
         H         H         0.57097   0.26443   0.51364   0.126285  
         H         H         0.73231   0.30510   0.49899   0.126954  
         H         H         0.30468   0.57001   0.50601   0.128506  
         H         H         0.42958   0.73427   0.48374   0.126567  
         H         H         0.26768   0.69233   0.50828   0.126121 

