
##########################################################################
#               Crystallographic Information Format file
#               Produced by PyCifRW module
#
#  This is a CIF file.  CIF has been adopted by the International
#  Union of Crystallography as the standard for data archiving and
#  transmission.
#
#  For information on this file format, follow the CIF links at
#  http://www.iucr.org
##########################################################################

data_image0

_cell_length_a                          29.5842
_cell_length_b                          29.9747
_cell_length_c                          7.90667
_cell_angle_alpha                       114.803
_cell_angle_beta                        60.8186
_cell_angle_gamma                       120.213
_symmetry_space_group_name_H-M          'P 1'
_space_group_name_Hall                  'P 1'
loop_
  _atom_site_type_symbol
  _atom_site_label
  _atom_site_fract_x
  _atom_site_fract_y
  _atom_site_fract_z
  _atom_site_charge
         O         O         0.30940   0.56491   0.98144   -0.438290           
         O         O         0.43779   0.74400   0.02242   -0.440391           
         O         O         0.26310   0.69576   0.98600   -0.433372           
         O         O         0.69034   0.43697   0.04132   -0.436560           
         O         O         0.56157   0.25872   0.98487   -0.381073           
         O         O         0.73678   0.30341   0.01461   -0.421577           
         N         N         0.40050   0.59131   0.00773   -0.145795           
         N         N         0.41303   0.81177   0.01075   -0.121005           
         N         N         0.19462   0.60123   0.97544   -0.120783           
         N         N         0.59965   0.41150   0.01497   -0.132905           
         N         N         0.58717   0.18845   0.97359   -0.193711           
         N         N         0.80652   0.39735   0.02403   -0.126287           
         C         C         0.32186   0.61306   0.99078   0.340471  
         C         C         0.39068   0.70900   0.01245   0.342460  
         C         C         0.29684   0.68293   0.99366   0.348806  
         C         C         0.67841   0.38858   0.02634   0.343246  
         C         C         0.61133   0.29361   -0.00353  0.319733  
         C         C         0.70299   0.31703   0.01147   0.348897  
         C         C         0.41321   0.64172   0.01624   0.080530  
         C         C         0.36338   0.77389   0.00627   0.099990  
         C         C         0.23233   0.58860   0.97297   0.101879  
         C         C         0.58687   0.36082   0.00193   0.077078  
         C         C         0.63543   0.22441   0.98981   0.092618  
         C         C         0.76835   0.41114   0.03634   0.103535  
         N         N         0.43119   0.57003   0.01551   -0.043133           
         N         N         0.43394   0.86416   0.00526   -0.032401           
         N         N         0.14125   0.56876   0.97393   -0.034810           
         N         N         0.56949   0.43308   0.00569   -0.046277           
         N         N         0.56766   0.13599   0.97475   -0.034829           
         N         N         0.86033   0.42934   0.02208   -0.038409           
         C         C         0.48555   0.60049   0.02498   0.380669  
         C         C         0.40384   0.88612   0.98940   0.387234  
         C         C         0.11441   0.51665   0.00434   0.390825  
         C         C         0.51543   0.40264   0.99351   0.381917  
         C         C         0.59812   0.11258   0.98134   0.380435  
         C         C         0.88753   0.48117   0.98845   0.391070  
         C         C         0.51266   0.57090   0.02870   -0.069614           
         C         C         0.43236   0.94321   0.98941   -0.086610           
         C         C         0.05701   0.48750   0.00072   -0.054741           
         C         C         0.48843   0.43233   0.99022   -0.071588           
         C         C         0.56906   0.05568   0.98684   -0.077235           
         C         C         0.94493   0.51025   0.99180   -0.058903           
         C         C         0.48644   0.51536   0.01175   0.004528  
         C         C         0.48728   0.97229   0.99241   0.021203  
         C         C         0.02918   0.51300   0.99184   0.020738  
         C         C         0.51464   0.48789   0.00791   0.007228  
         C         C         0.51391   0.02680   0.98616   0.018679  
         C         C         0.97259   0.48479   0.00183   0.021740  
         C         C         0.43281   0.48659   -0.00377  -0.059953           
         C         C         0.51626   0.94795   0.00096   -0.063337           
         C         C         0.05667   0.56622   0.97380   -0.078285           
         C         C         0.56833   0.51658   0.02292   -0.061417           
         C         C         0.48503   0.05139   0.97817   -0.052932           
         C         C         0.94502   0.43156   0.01989   -0.082310           
         C         C         0.40337   0.51368   0.99373   0.384007  
         C         C         0.48871   0.89251   0.01693   0.381098  
         C         C         0.11494   0.59648   0.96513   0.380419  
         C         C         0.59771   0.48949   0.02586   0.388114  
         C         C         0.51273   0.10715   0.96202   0.386595  
         C         C         0.88649   0.40157   0.03152   0.378403  
         C         C         0.37495   0.65389   0.00676   -0.240825           
         C         C         0.35097   0.72248   0.00631   -0.233547           
         C         C         0.28329   0.62850   0.98565   -0.236994           
         C         C         0.62521   0.34789   0.00847   -0.225351           
         C         C         0.64881   0.27794   -0.00252  -0.221272           
         C         C         0.71686   0.37207   0.02551   -0.237527           
         H         H         0.45252   0.67261   0.02985   0.134007  
         H         H         0.33296   0.78278   0.00057   0.129471  
         H         H         0.22342   0.54807   0.96413   0.133809  
         H         H         0.54745   0.33072   0.98724   0.135190  
         H         H         0.66576   0.21608   -0.00085  0.121628  
         H         H         0.77756   0.45215   0.05063   0.133716  
         O         O         0.50867   0.64806   0.02719   -0.387308           
         O         O         0.35718   0.85944   0.97630   -0.399971           
         O         O         0.13702   0.49764   0.03704   -0.410890           
         O         O         0.49239   0.35492   0.98888   -0.388646           
         O         O         0.64609   0.13792   0.98247   -0.390002           
         O         O         0.86498   0.50014   0.95514   -0.413545           
         H         H         0.35951   0.56489   -0.00273  0.263194  
         H         H         0.43993   0.79827   0.01335   0.266295  
         H         H         0.20875   0.64253   0.98161   0.266335  
         H         H         0.64066   0.43752   0.02621   0.261870  
         H         H         0.55813   0.22219   0.98027   0.311190  
         H         H         0.79215   0.35592   0.01561   0.267827  
         O         O         0.35831   0.49097   0.96984   -0.374383           
         O         O         0.50947   0.87009   0.04173   -0.398518           
         O         O         0.14102   0.64298   0.95348   -0.378785           
         O         O         0.64282   0.51211   0.04924   -0.374465           
         O         O         0.49100   0.12842   0.93662   -0.405230           
         O         O         0.86004   0.35532   0.04659   -0.378351           
         C         C         0.97285   0.56281   0.97450   -0.072601           
         C         C         0.02845   0.59073   0.96628   -0.078863           
         H         H         0.95096   0.58117   0.96354   0.133431  
         H         H         0.05099   0.63164   0.95110   0.141880  
         C         C         0.43576   0.40486   0.97392   -0.068781           
         C         C         0.40792   0.43197   0.97762   -0.055512           
         H         H         0.41680   0.36210   0.95786   0.139822  
         H         H         0.36678   0.41115   0.96462   0.138318  
         C         C         0.59717   0.03064   0.99191   -0.082677           
         C         C         0.57082   0.97706   -0.00009  -0.070349           
         H         H         0.63974   0.05389   0.99131   0.139819  
         H         H         0.59204   0.95743   0.00762   0.133781  
         C         C         0.02922   0.43478   0.01614   -0.074250           
         C         C         0.97354   0.40694   0.02509   -0.074499           
         H         H         0.05131   0.41614   0.02448   0.133847  
         H         H         0.95135   0.36596   0.03930   0.136650  
         C         C         0.56543   0.59834   0.04409   -0.068953           
         C         C         0.59323   0.57119   0.04055   -0.054641           
         H         H         0.58424   0.64111   0.05964   0.140309  
         H         H         0.63446   0.59215   0.05253   0.138019  
         C         C         0.40431   0.96844   0.98504   -0.075379           
         C         C         0.43037   0.02225   0.98004   -0.074401           
         H         H         0.36194   0.94520   0.98355   0.134015  
         H         H         0.40892   0.04194   0.97385   0.132778  
         O         O         0.30822   0.56485   0.48159   -0.434288           
         O         O         0.43628   0.74414   0.52500   -0.431224           
         O         O         0.26234   0.69670   0.48801   -0.375937           
         O         O         0.68920   0.43647   0.54422   -0.441398           
         O         O         0.56180   0.25705   0.48228   -0.440136           
         O         O         0.73693   0.30305   0.51148   -0.427285           
         N         N         0.39900   0.59092   0.50812   -0.133745           
         N         N         0.41158   0.81090   0.50967   -0.110779           
         N         N         0.19379   0.60251   0.48004   -0.192305           
         N         N         0.59852   0.41116   0.51550   -0.143454           
         N         N         0.58722   0.18708   0.47569   -0.120499           
         N         N         0.80594   0.39679   0.52184   -0.123964           
         C         C         0.32075   0.61313   0.49171   0.339023  
         C         C         0.38945   0.70873   0.51388   0.347732  
         C         C         0.29665   0.68189   0.49489   0.332342  
         C         C         0.67709   0.38791   0.52776   0.340912  
         C         C         0.60865   0.29168   0.49552   0.345611  
         C         C         0.70269   0.31642   0.50988   0.350948  
         C         C         0.41189   0.64141   0.51817   0.084844  
         C         C         0.36204   0.77337   0.50434   0.102357  
         C         C         0.22981   0.58798   0.47413   0.087818  
         C         C         0.58615   0.36038   0.50161   0.078800  
         C         C         0.63645   0.22503   0.48615   0.098057  
         C         C         0.76751   0.41066   0.53607   0.096883  
         N         N         0.42941   0.56937   0.51635   -0.049477           
         N         N         0.43255   0.86332   0.50505   -0.031110           
         N         N         0.14121   0.56892   0.47500   -0.035154           
         N         N         0.56816   0.43254   0.50570   -0.047016           
         N         N         0.56631   0.13429   0.47691   -0.031036           
         N         N         0.85965   0.42890   0.52029   -0.049152           
         C         C         0.48388   0.59972   0.52471   0.381653  
         C         C         0.40218   0.88566   0.49275   0.386293  
         C         C         0.11387   0.51659   0.50414   0.387569  
         C         C         0.51427   0.40205   0.49241   0.379735  
         C         C         0.59756   0.11135   0.48058   0.383267  
         C         C         0.88675   0.48079   0.48728   0.392949  
         C         C         0.51099   0.57015   0.52837   -0.071393           
         C         C         0.43094   0.94270   0.49222   -0.085136           
         C         C         0.05650   0.48728   0.49928   -0.053217           
         C         C         0.48705   0.43172   0.49006   -0.071499           
         C         C         0.56811   0.05469   0.48765   -0.077177           
         C         C         0.94433   0.50976   0.48917   -0.057850           
         C         C         0.48474   0.51464   0.51175   0.007893  
         C         C         0.48598   0.97155   0.49451   0.022948  
         C         C         0.02875   0.51261   0.48882   0.020096  
         C         C         0.51308   0.48727   0.50787   0.002268  
         C         C         0.51279   0.02608   0.48827   0.018828  
         C         C         0.97218   0.48434   0.49840   0.019182  
         C         C         0.43105   0.48585   0.49663   -0.060516           
         C         C         0.51496   0.94695   0.50174   -0.062027           
         C         C         0.05629   0.56583   0.47119   -0.076553           
         C         C         0.56679   0.51601   0.52283   -0.058930           
         C         C         0.48375   0.05076   0.48179   -0.052919           
         C         C         0.94460   0.43122   0.51740   -0.083801           
         C         C         0.40151   0.51294   0.49435   0.388771  
         C         C         0.48732   0.89146   0.51715   0.381379  
         C         C         0.11474   0.59617   0.46270   0.382487  
         C         C         0.59616   0.48888   0.52596   0.385679  
         C         C         0.51116   0.10652   0.46876   0.381785  
         C         C         0.88586   0.40135   0.53123   0.382438  
         C         C         0.37376   0.65384   0.50849   -0.242580           
         C         C         0.34956   0.72187   0.50585   -0.221004           
         C         C         0.28205   0.62842   0.48706   -0.223755           
         C         C         0.62416   0.34745   0.50917   -0.240241           
         C         C         0.64847   0.27723   0.49654   -0.233149           
         C         C         0.71606   0.37147   0.52540   -0.231286           
         H         H         0.45111   0.67222   0.53285   0.133902  
         H         H         0.33241   0.78307   0.49748   0.132897  
         H         H         0.22221   0.54756   0.46267   0.125069  
         H         H         0.54704   0.32977   0.48513   0.132605  
         H         H         0.66712   0.21532   0.48627   0.133578  
         H         H         0.77656   0.45172   0.55161   0.134292  
         O         O         0.50713   0.64724   0.52603   -0.387288           
         O         O         0.35518   0.85929   0.48256   -0.399133           
         O         O         0.13607   0.49715   0.53713   -0.414816           
         O         O         0.49147   0.35419   0.48550   -0.390689           
         O         O         0.64589   0.13671   0.47737   -0.388759           
         O         O         0.86394   0.49991   0.45587   -0.414664           
         H         H         0.35784   0.56485   0.49684   0.259392  
         H         H         0.43810   0.79706   0.51434   0.264074  
         H         H         0.22595   0.66348   0.48497   0.309384  
         H         H         0.63912   0.43752   0.52833   0.262260  
         H         H         0.55994   0.20077   0.47746   0.266564  
         H         H         0.79134   0.35509   0.51281   0.267861  
         O         O         0.35651   0.49026   0.47022   -0.373705           
         O         O         0.50783   0.86874   0.54154   -0.394403           
         O         O         0.14023   0.64240   0.44810   -0.382427           
         O         O         0.64128   0.51155   0.54956   -0.376499           
         O         O         0.48993   0.12947   0.44938   -0.395145           
         O         O         0.85920   0.35542   0.54987   -0.377008           
         C         C         0.97215   0.56245   0.47382   -0.075227           
         C         C         0.02778   0.59038   0.46577   -0.078564           
         H         H         0.95006   0.58116   0.46588   0.137062  
         H         H         0.04987   0.63150   0.45318   0.136878  
         C         C         0.43435   0.40419   0.47411   -0.069552           
         C         C         0.40636   0.43121   0.47809   -0.056415           
         H         H         0.41555   0.36143   0.45833   0.139707  
         H         H         0.36519   0.41012   0.46550   0.138373  
         C         C         0.59620   0.02934   0.49125   -0.075585           
         C         C         0.56968   0.97579   0.49929   -0.067511           
         H         H         0.63887   0.05231   0.48973   0.135781  
         H         H         0.59090   0.95596   0.50577   0.133478  
         C         C         0.02876   0.43459   0.51451   -0.074698           
         C         C         0.97309   0.40663   0.52299   -0.075182           
         H         H         0.05098   0.41626   0.52389   0.133107  
         H         H         0.95089   0.36556   0.53645   0.139897  
         C         C         0.56383   0.59762   0.54317   -0.068457           
         C         C         0.59171   0.57061   0.54012   -0.054476           
         H         H         0.58270   0.64033   0.55762   0.139970  
         H         H         0.63300   0.59161   0.55192   0.137644  
         C         C         0.40300   0.96800   0.48749   -0.075308           
         C         C         0.42918   0.02179   0.48264   -0.072463           
         H         H         0.36071   0.94480   0.48519   0.134743  
         H         H         0.40797   0.04162   0.47599   0.133599 

