
##########################################################################
#               Crystallographic Information Format file
#               Produced by PyCifRW module
#
#  This is a CIF file.  CIF has been adopted by the International
#  Union of Crystallography as the standard for data archiving and
#  transmission.
#
#  For information on this file format, follow the CIF links at
#  http://www.iucr.org
##########################################################################

data_image0

_cell_length_a                          18.4355
_cell_length_b                          18.4967
_cell_length_c                          8.01907
_cell_angle_alpha                       118.653
_cell_angle_beta                        63.4015
_cell_angle_gamma                       119.518
_symmetry_space_group_name_H-M          'P 1'
_space_group_name_Hall                  'P 1'
loop_
  _atom_site_type_symbol
  _atom_site_label
  _atom_site_fract_x
  _atom_site_fract_y
  _atom_site_fract_z
  _atom_site_charge
         C         C         0.39228   0.55550   0.26724   0.120071  
         C         C         0.44707   0.83745   0.24280   0.119313  
         C         C         0.15985   0.60462   0.24314   0.119916  
         N         N         0.47289   0.57866   0.26995   -0.232175           
         N         N         0.42400   0.89464   0.23733   -0.233598           
         N         N         0.10263   0.52445   0.24869   -0.221940           
         C         C         0.50900   0.52625   0.26304   0.224513  
         C         C         0.47506   0.98107   0.23816   0.211035  
         C         C         0.01573   0.48822   0.24954   0.211544  
         C         C         0.59267   0.56689   0.28901   -0.184232           
         C         C         0.43791   0.02884   0.22656   -0.190301           
         C         C         0.96633   0.40421   0.26968   -0.183128           
         C         C         0.63212   0.51669   0.27840   -0.077428           
         C         C         0.48513   0.11556   0.23184   -0.082998           
         C         C         0.87922   0.36548   0.27474   -0.083461           
         H         H         0.34536   0.49102   0.27400   0.102598  
         H         H         0.51311   0.85704   0.24423   0.103984  
         H         H         0.14047   0.64916   0.23371   0.101047  
         H         H         0.62516   0.63768   0.31922   0.130416  
         H         H         0.37215   0.99639   0.21148   0.128549  
         H         H         0.99655   0.37114   0.28649   0.125891  
         H         H         0.69675   0.54656   0.29849   0.112689  
         H         H         0.45724   0.15241   0.22033   0.114847  
         H         H         0.84030   0.30105   0.29279   0.115124  
         C         C         0.58874   0.42561   0.24516   -0.018018           
         C         C         0.57053   0.15701   0.24809   -0.016607           
         C         C         0.83874   0.40923   0.26020   -0.016123           
         C         C         0.50525   0.38565   0.21882   -0.077215           
         C         C         0.60696   0.10905   0.26032   -0.079631           
         C         C         0.88843   0.49382   0.24241   -0.076349           
         C         C         0.46568   0.43512   0.22689   -0.188291           
         C         C         0.56030   0.02232   0.25527   -0.192374           
         C         C         0.97580   0.53302   0.23668   -0.195327           
         H         H         0.47295   0.31484   0.18920   0.113992  
         H         H         0.67219   0.14189   0.27770   0.114938  
         H         H         0.85751   0.52707   0.22780   0.111953  
         H         H         0.40252   0.40267   0.19954   0.123398  
         H         H         0.58910   0.98768   0.27151   0.123485  
         H         H         0.01287   0.59746   0.21893   0.119999  
         H         H         0.51024   0.64301   0.26715   0.273266  
         H         H         0.35894   0.86620   0.23341   0.276186  
         H         H         0.13137   0.48879   0.25410   0.272082  
         N         N         0.58200   0.29038   0.23873   -0.424945           
         N         N         0.70381   0.28358   0.25764   -0.426443           
         N         N         0.71322   0.41536   0.25033   -0.419131           
         C         C         0.63012   0.37430   0.24339   0.373340  
         C         C         0.62133   0.24809   0.24832   0.378849  
         C         C         0.74743   0.36730   0.25647   0.373190  
         C         C         0.42367   0.69838   0.25283   0.356271  
         C         C         0.30080   0.72339   0.24491   0.355846  
         C         C         0.27433   0.57702   0.25905   0.352682  
         C         C         0.36423   0.61111   0.26131   -0.249131           
         C         C         0.38999   0.75370   0.24707   -0.239870           
         C         C         0.24422   0.63398   0.24932   -0.240535           
         O         O         0.50279   0.72625   0.24971   -0.477906           
         O         O         0.27299   0.77232   0.23793   -0.468690           
         O         O         0.22461   0.49962   0.26421   -0.468923           
         C         C         0.39345   0.55857   0.76777   0.118128  
         C         C         0.44754   0.84218   0.74590   0.120913  
         C         C         0.16038   0.60886   0.74776   0.118140  
         N         N         0.47419   0.58162   0.76912   -0.228900           
         N         N         0.42519   0.89855   0.73577   -0.229882           
         N         N         0.10317   0.52866   0.75390   -0.225870           
         C         C         0.51044   0.52934   0.76273   0.223579  
         C         C         0.47630   0.98493   0.73719   0.213104  
         C         C         0.01646   0.49229   0.75364   0.214575  
         C         C         0.59373   0.57059   0.79053   -0.183266           
         C         C         0.43976   0.03235   0.72294   -0.190727           
         C         C         0.96776   0.40785   0.77122   -0.184164           
         C         C         0.63379   0.52165   0.78190   -0.078760           
         C         C         0.48728   0.11907   0.72755   -0.082772           
         C         C         0.88045   0.36879   0.77659   -0.083965           
         H         H         0.34651   0.49318   0.77124   0.104863  
         H         H         0.51277   0.86236   0.75253   0.102230  
         H         H         0.14077   0.65297   0.73695   0.102593  
         H         H         0.62555   0.64126   0.82047   0.129639  
         H         H         0.37449   0.00011   0.70548   0.128714  
         H         H         -0.00167  0.37456   0.78742   0.125940  
         H         H         0.69786   0.55258   0.80439   0.114138  
         H         H         0.46039   0.15586   0.71253   0.113871  
         H         H         0.84195   0.30436   0.79469   0.115633  
         C         C         0.59099   0.43060   0.74811   -0.015741           
         C         C         0.57220   0.16052   0.74625   -0.017212           
         C         C         0.84004   0.41295   0.76330   -0.014866           
         C         C         0.50793   0.38977   0.71945   -0.076361           
         C         C         0.60824   0.11261   0.76023   -0.080013           
         C         C         0.88927   0.49741   0.74596   -0.080671           
         C         C         0.46768   0.43800   0.72579   -0.187360           
         C         C         0.56126   0.02601   0.75601   -0.191387           
         C         C         0.97629   0.53691   0.74139   -0.197100           
         H         H         0.47646   0.31908   0.68920   0.113741  
         H         H         0.67350   0.14555   0.77789   0.115728  
         H         H         0.85766   0.53045   0.73374   0.115525  
         H         H         0.40467   0.40480   0.69652   0.123484  
         H         H         0.58981   0.99140   0.77315   0.123630  
         H         H         0.01305   0.60169   0.72506   0.120463  
         H         H         0.51142   0.64689   0.76957   0.273108  
         H         H         0.36091   0.86928   0.72766   0.271779  
         H         H         0.13155   0.49336   0.76216   0.272613  
         N         N         0.58368   0.29502   0.74086   -0.422919           
         N         N         0.70572   0.28687   0.75635   -0.425519           
         N         N         0.71483   0.42009   0.75560   -0.421001           
         C         C         0.63188   0.37922   0.74690   0.373248  
         C         C         0.62302   0.25197   0.74779   0.375032  
         C         C         0.74885   0.37110   0.75917   0.374823  
         C         C         0.42472   0.70308   0.75589   0.357670  
         C         C         0.30172   0.72685   0.74510   0.359482  
         C         C         0.27502   0.58167   0.76489   0.351218  
         C         C         0.36539   0.61515   0.76428   -0.251393           
         C         C         0.39069   0.75824   0.74968   -0.241998           
         C         C         0.24486   0.63824   0.75338   -0.240114           
         O         O         0.50334   0.73105   0.75316   -0.473802           
         O         O         0.27410   0.77448   0.73346   -0.469688           
         O         O         0.22511   0.50507   0.77427   -0.468400 

