
##########################################################################
#               Crystallographic Information Format file
#               Produced by PyCifRW module
#
#  This is a CIF file.  CIF has been adopted by the International
#  Union of Crystallography as the standard for data archiving and
#  transmission.
#
#  For information on this file format, follow the CIF links at
#  http://www.iucr.org
##########################################################################

data_image0

_cell_length_a                          23.8689
_cell_length_b                          24.9814
_cell_length_c                          35.2246
_cell_angle_alpha                       89.6507
_cell_angle_beta                        89.4903
_cell_angle_gamma                       88.568
_symmetry_space_group_name_H-M          'P 1'
_space_group_name_Hall                  'P 1'
loop_
  _atom_site_type_symbol
  _atom_site_label
  _atom_site_fract_x
  _atom_site_fract_y
  _atom_site_fract_z
  _atom_site_charge
         H         H         0.05973   0.26326   0.59997   0.116014  
         H         H         0.94099   0.10281   0.60532   0.114670  
         H         H         0.94008   0.16666   0.65877   0.107934  
         H         H         0.96998   0.25367   0.68726   0.072239  
         H         H         0.97804   0.40634   0.63102   0.120646  
         H         H         0.97439   0.48788   0.67071   0.110505  
         H         H         0.02480   0.39363   0.76762   0.113330  
         H         H         0.95439   0.67944   0.72124   0.111139  
         C         C         0.99498   0.05753   0.46664   0.027009  
         C         C         0.99523   0.11433   0.46749   0.018870  
         C         C         0.99620   0.14945   0.43343   0.076757  
         C         C         0.96469   0.23298   0.40342   -0.107128           
         C         C         0.00822   0.22886   0.37620   0.051882  
         C         C         0.01756   0.27257   0.34918   0.066506  
         N         N         0.98491   0.31463   0.34929   -0.295958           
         C         C         0.99259   0.35818   0.32467   0.198726  
         C         C         0.02426   0.35806   0.29073   -0.171986           
         C         C         0.96432   0.40613   0.33499   -0.157071           
         C         C         0.02731   0.40426   0.26837   -0.131617           
         C         C         0.96792   0.45204   0.31268   -0.136122           
         C         C         -0.00080  0.45216   0.27864   0.058566  
         C         C         0.04119   0.81517   0.42292   -0.143304           
         C         C         0.94308   0.81450   0.38064   -0.130550           
         C         C         0.01069   0.02502   0.57117   -0.139526           
         H         H         0.06384   0.19734   0.54720   0.116906  
         C         C         0.03779   0.14388   0.40506   -0.141222           
         H         H         0.01905   0.94784   0.59682   0.111534  
         H         H         0.07458   0.73725   0.60520   0.115520  
         H         H         0.93465   0.88719   0.59440   0.115217  
         H         H         0.92668   0.82012   0.64638   0.106915  
         H         H         0.95409   0.73555   0.67496   0.065757  
         H         H         0.08104   0.60334   0.65122   0.118147  
         H         H         0.07059   0.51886   0.68784   0.114125  
         H         H         0.94302   0.59548   0.75681   0.110436  
         H         H         0.02712   0.31193   0.72820   0.112948  
         C         C         0.99728   0.94303   0.46574   0.025875  
         C         C         0.00194   0.88629   0.46568   0.018260  
         C         C         0.99782   0.85275   0.43127   0.081674  
         C         C         0.03530   0.77741   0.39463   -0.104264           
         C         C         0.98542   0.77551   0.37365   0.048133  
         C         C         0.97659   0.73161   0.34719   0.068222  
         N         N         0.01446   0.69432   0.34273   -0.289889           
         C         C         0.00638   0.64983   0.31961   0.201498  
         C         C         0.97468   0.64905   0.28613   -0.176653           
         C         C         0.03397   0.60207   0.33109   -0.163482           
         C         C         0.97055   0.60185   0.26531   -0.130110           
         C         C         0.02881   0.55519   0.31056   -0.134636           
         C         C         0.99744   0.55395   0.27692   0.054500  
         C         C         0.95892   0.19415   0.43140   -0.138511           
         C         C         0.04382   0.18305   0.37696   -0.136394           
         C         C         0.01194   0.97029   0.57071   -0.131979           
         H         H         0.08280   0.80457   0.55264   0.114999  
         C         C         0.94932   0.85278   0.40892   -0.144062           
         H         H         0.01714   0.04601   0.59763   0.114078  
         H         H         0.93679   0.26805   0.40229   0.115089  
         H         H         0.06698   0.10976   0.40621   0.116320  
         H         H         0.07745   0.17878   0.35599   0.109176  
         H         H         0.05439   0.26823   0.33028   0.068370  
         H         H         0.93954   0.40607   0.36105   0.118300  
         H         H         0.94560   0.48837   0.32159   0.112967  
         H         H         0.05200   0.40292   0.24231   0.110261  
         H         H         0.95412   0.68568   0.27590   0.111309  
         C         C         0.00247   0.05578   0.53723   0.028456  
         C         C         -0.00011  0.11262   0.53736   0.019234  
         C         C         0.00182   0.14581   0.57193   0.077121  
         C         C         0.03454   0.22759   0.60086   -0.108894           
         C         C         -0.00121  0.22018   0.63237   0.050503  
         C         C         0.99149   0.26301   0.66034   0.065384  
         N         N         0.00750   0.31054   0.65174   -0.282722           
         C         C         0.00237   0.35356   0.67677   0.201561  
         C         C         0.01474   0.35038   0.71576   -0.184600           
         C         C         0.98768   0.40385   0.66111   -0.164730           
         C         C         0.01387   0.39659   0.73776   -0.127445           
         C         C         0.98596   0.44954   0.68353   -0.140565           
         C         C         0.00095   0.44716   0.72192   0.053603  
         C         C         0.04882   0.80796   0.57337   -0.142084           
         C         C         0.96149   0.81726   0.62622   -0.135079           
         C         C         0.98975   0.02853   0.43204   -0.136071           
         H         H         0.92562   0.19831   0.45255   0.114047  
         C         C         0.96820   0.13709   0.60432   -0.141300           
         H         H         0.98731   0.95262   0.40484   0.114902  
         H         H         0.06807   0.74751   0.38870   0.114840  
         H         H         0.91542   0.88138   0.41512   0.117167  
         H         H         0.90432   0.81370   0.36458   0.106290  
         H         H         0.93550   0.73078   0.33329   0.069300  
         H         H         0.05898   0.60281   0.35673   0.119628  
         H         H         0.05000   0.51882   0.32058   0.111884  
         H         H         0.94583   0.60257   0.23955   0.109260  
         H         H         0.04607   0.32169   0.28124   0.110661  
         C         C         0.00607   0.94135   0.53615   0.023248  
         C         C         0.00891   0.88459   0.53525   0.022097  
         C         C         0.00897   0.85030   0.56966   0.077914  
         C         C         0.04473   0.77065   0.60253   -0.105848           
         C         C         0.00016   0.77402   0.62899   0.052173  
         C         C         0.99190   0.73152   0.65699   0.062893  
         N         N         0.02608   0.69065   0.65840   -0.295922           
         C         C         0.01731   0.64670   0.68241   0.197510  
         C         C         0.97911   0.64411   0.71303   -0.174775           
         C         C         0.05046   0.60072   0.67419   -0.151029           
         C         C         0.97276   0.59641   0.73328   -0.138516           
         C         C         0.04408   0.55357   0.69462   -0.135446           
         C         C         0.00406   0.54985   0.72397   0.061192  
         C         C         0.03613   0.19108   0.57143   -0.137997           
         C         C         0.96725   0.17345   0.63430   -0.134755           
         C         C         0.99085   0.97374   0.43157   -0.138301           
         H         H         0.07943   0.81569   0.43947   0.115835  
         C         C         0.96597   0.85504   0.59712   -0.141961           
         H         H         0.98447   0.05102   0.40573   0.114433  
         H         H         0.73152   0.54861   0.10899   0.117416  
         H         H         0.57366   0.42867   0.13834   0.115875  
         H         H         0.66046   0.42294   0.17647   0.109268  
         H         H         0.75540   0.44594   0.18717   0.066039  
         H         H         0.88852   0.55536   0.14623   0.118986  
         H         H         0.97717   0.55116   0.18250   0.113227  
         H         H         0.89720   0.45287   0.26668   0.108789  
         H         H         0.18928   0.53716   0.23302   0.108845  
         C         C         0.55095   0.48976   0.95681   0.028244  
         C         C         0.60057   0.47732   0.97800   -0.138307           
         C         C         0.60148   0.48383   0.89287   0.077455  
         C         C         0.69606   0.51155   0.87720   -0.109620           
         C         C         0.69873   0.47573   0.84647   0.050725  
         C         C         0.74996   0.47005   0.82358   0.064947  
         N         N         0.79616   0.49018   0.83490   -0.281384           
         C         C         0.84457   0.48827   0.81229   0.202050  
         C         C         0.84478   0.50236   0.77352   -0.187568           
         C         C         0.89598   0.47524   0.82962   -0.167042           
         C         C         0.89515   0.50497   0.75340   -0.125584           
         C         C         0.94594   0.47668   0.80892   -0.139165           
         C         C         0.94683   0.49365   0.77087   0.051748  
         C         C         0.34742   0.48226   0.90484   -0.137955           
         C         C         0.34684   0.54455   0.83880   -0.129077           
         C         C         0.55102   0.49509   0.07867   0.022157  
         H         H         0.63853   0.46531   0.96270   0.117214  
         H         H         0.64454   0.55386   0.07024   0.114360  
         C         C         0.39479   0.54126   0.86109   -0.141986           
         H         H         0.26971   0.45145   0.11152   0.117951  
         H         H         0.42153   0.57974   0.13484   0.116258  
         H         H         0.33298   0.58533   0.17238   0.108497  
         H         H         0.24162   0.55569   0.18729   0.065379  
         H         H         0.10790   0.45016   0.14515   0.119829  
         H         H         0.01872   0.45575   0.18175   0.111676  
         H         H         0.10136   0.54477   0.26809   0.108786  
         H         H         0.80991   0.45849   0.23172   0.111028  
         C         C         0.44810   0.50881   0.95744   0.027848  
         C         C         0.39887   0.52304   0.97893   -0.138720           
         C         C         0.39607   0.51014   0.89457   0.078033  
         C         C         0.29928   0.48629   0.88307   -0.111709           
         C         C         0.29818   0.51758   0.84970   0.049155  
         C         C         0.24765   0.52151   0.82652   0.067427  
         N         N         0.19955   0.50732   0.83953   -0.277280           
         C         C         0.15321   0.50697   0.81539   0.203938  
         C         C         0.15352   0.47710   0.78170   -0.189457           
         C         C         0.10350   0.53449   0.82619   -0.175604           
         C         C         0.10465   0.47297   0.76050   -0.133894           
         C         C         0.05576   0.53178   0.80399   -0.124043           
         C         C         0.05457   0.49915   0.77160   0.046147  
         C         C         0.64827   0.51569   0.89981   -0.139179           
         C         C         0.65169   0.44492   0.83876   -0.133957           
         C         C         0.44870   0.50838   0.07900   0.020633  
         H         H         0.36077   0.53400   0.96380   0.116223  
         H         H         0.35799   0.44692   0.07277   0.117015  
         C         C         0.60391   0.44865   0.86179   -0.142474           
         H         H         0.26177   0.46485   0.89101   0.118854  
         H         H         0.43163   0.56354   0.85295   0.115929  
         H         H         0.34669   0.56898   0.81307   0.108925  
         H         H         0.25237   0.53775   0.79759   0.073132  
         H         H         0.10325   0.55835   0.85190   0.121539  
         H         H         0.01836   0.55470   0.81235   0.108756  
         H         H         0.10573   0.44830   0.73517   0.110389  
         H         H         0.80538   0.51331   0.75989   0.112419  
         C         C         0.44854   0.51027   0.03869   0.024949  
         C         C         0.39896   0.52349   0.01774   -0.135250           
         C         C         0.39601   0.51272   0.10137   0.077571  
         C         C         0.30327   0.47925   0.11621   -0.108034           
         C         C         0.29564   0.51826   0.14463   0.049630  
         C         C         0.24393   0.52243   0.16694   0.068406  
         N         N         0.20344   0.48954   0.16276   -0.295335           
         C         C         0.15489   0.49450   0.18546   0.198816  
         C         C         0.15194   0.52033   0.22084   -0.172774           
         C         C         0.10585   0.47097   0.17218   -0.158441           
         C         C         0.10178   0.52393   0.24115   -0.131435           
         C         C         0.05574   0.47450   0.19288   -0.139965           
         C         C         0.05234   0.50149   0.22779   0.058761  
         C         C         0.64837   0.52494   0.09334   -0.137331           
         C         C         0.65704   0.45172   0.15318   -0.134104           
         C         C         0.44792   0.50515   0.91713   0.019875  
         H         H         0.36094   0.53466   0.03328   0.116773  
         H         H         0.34820   0.45644   0.92980   0.117270  
         C         C         0.60812   0.45501   0.13186   -0.142145           
         H         H         0.73235   0.53580   0.88255   0.117043  
         H         H         0.56838   0.42346   0.85618   0.116177  
         H         H         0.65313   0.41702   0.81511   0.110744  
         H         H         0.74757   0.44693   0.79716   0.072512  
         H         H         0.89599   0.46379   0.85946   0.120307  
         H         H         0.98494   0.46578   0.82299   0.111805  
         H         H         0.89450   0.51668   0.72361   0.109327  
         H         H         0.19160   0.45540   0.77313   0.115340  
         C         C         0.55140   0.49265   0.03830   0.025007  
         C         C         0.60084   0.47897   0.01684   -0.135432           
         C         C         0.60313   0.49110   0.10118   0.076421  
         C         C         0.69683   0.52231   0.11490   -0.108200           
         C         C         0.70232   0.48510   0.14497   0.053047  
         C         C         0.75360   0.48000   0.16720   0.066119  
         N         N         0.79448   0.51262   0.16318   -0.294961           
         C         C         0.84278   0.50688   0.18560   0.198695  
         C         C         0.84638   0.47834   0.22011   -0.174114           
         C         C         0.89105   0.53304   0.17280   -0.159136           
         C         C         0.89622   0.47572   0.24037   -0.131556           
         C         C         0.94075   0.53047   0.19339   -0.137697           
         C         C         0.94457   0.50182   0.22787   0.058226  
         C         C         0.35233   0.47696   0.09479   -0.138043           
         C         C         0.33884   0.55438   0.15097   -0.131842           
         C         C         0.55010   0.48981   0.91639   0.020272  
         H         H         0.63902   0.46859   0.03211   0.115913  
         H         H         0.64603   0.54459   0.92278   0.117325  
         C         C         0.38858   0.55134   0.12993   -0.142076           
         C         C         0.00121   0.49733   0.74724   0.015080  
         C         C         0.99816   0.50237   0.25250   0.009601  
         C         C         0.49993   0.50109   0.01815   -0.000157           
         C         C         0.49881   0.49647   0.89783   -0.189628           
         H         H         0.49849   0.49479   0.86696   0.111586  
         C         C         0.49971   0.49999   0.97741   -0.001669           
         C         C         0.49971   0.50164   0.09791   -0.193008           
         H         H         0.49952   0.50139   0.12882   0.118474  
         C         C         0.00067   0.97077   0.50119   0.000351  
         C         C         0.00893   0.85879   0.50011   -0.188035           
         H         H         0.01092   0.81525   0.49962   0.115984  
         C         C         -0.00093  0.02814   0.50172   -0.002024           
         C         C         0.99659   0.14000   0.50262   -0.185323           
         H         H         0.99557   0.18354   0.50290   0.111236 

