
##########################################################################
#               Crystallographic Information Format file
#               Produced by PyCifRW module
#
#  This is a CIF file.  CIF has been adopted by the International
#  Union of Crystallography as the standard for data archiving and
#  transmission.
#
#  For information on this file format, follow the CIF links at
#  http://www.iucr.org
##########################################################################

data_image0

_cell_length_a                          23.9172
_cell_length_b                          25.2554
_cell_length_c                          34.6343
_cell_angle_alpha                       90.2813
_cell_angle_beta                        89.9323
_cell_angle_gamma                       91.0084
_symmetry_space_group_name_H-M          'P 1'
_space_group_name_Hall                  'P 1'
loop_
  _atom_site_type_symbol
  _atom_site_label
  _atom_site_fract_x
  _atom_site_fract_y
  _atom_site_fract_z
  _atom_site_charge
         H         H         0.42020   0.75118   0.61116   0.116159  
         H         H         0.56495   0.61367   0.59711   0.116252  
         H         H         0.57155   0.67973   0.65031   0.108081  
         H         H         0.54299   0.76302   0.67911   0.065364  
         H         H         0.43152   0.89331   0.64356   0.118979  
         H         H         0.44514   0.97953   0.67694   0.112237  
         H         H         0.54325   0.90342   0.76376   0.110876  
         H         H         0.45926   0.18020   0.72214   0.115088  
         C         C         0.51354   0.55794   0.46668   0.027793  
         C         C         0.50608   0.61368   0.46671   0.018584  
         C         C         0.51088   0.64825   0.43235   0.076321  
         C         C         0.53924   0.73545   0.40801   -0.108154           
         C         C         0.51047   0.72584   0.37309   0.053729  
         C         C         0.50507   0.76760   0.34416   0.065532  
         N         N         0.51747   0.81626   0.35288   -0.297302           
         C         C         0.51081   0.85848   0.32712   0.198056  
         C         C         0.48227   0.85711   0.29146   -0.173047           
         C         C         0.53449   0.90728   0.33906   -0.149664           
         C         C         0.47826   0.90265   0.26904   -0.130704           
         C         C         0.53018   0.95256   0.31658   -0.138519           
         C         C         0.50124   0.95160   0.28131   0.061089  
         C         C         0.54780   0.30852   0.43141   -0.135679           
         C         C         0.47823   0.32778   0.36868   -0.133946           
         C         C         0.48787   0.52710   0.57229   -0.134262           
         H         H         0.41380   0.68521   0.55720   0.116199  
         C         C         0.48462   0.63764   0.39668   -0.140724           
         H         H         0.48131   0.45124   0.59860   0.112778  
         H         H         0.07842   0.25475   0.60368   0.117329  
         H         H         0.92759   0.11697   0.59464   0.117779  
         H         H         0.92290   0.18797   0.64437   0.107116  
         H         H         0.95472   0.27215   0.67004   0.067211  
         H         H         0.06403   0.40520   0.63608   0.119851  
         H         H         0.04977   0.48800   0.67326   0.111392  
         H         H         0.96188   0.39907   0.76057   0.111751  
         H         H         0.03054   0.68356   0.72572   0.111626  
         C         C         0.00116   0.05534   0.46382   0.025050  
         C         C         0.00258   0.11160   0.46429   0.020193  
         C         C         -0.00108  0.14541   0.42959   0.079822  
         C         C         0.02750   0.22752   0.39782   -0.107054           
         C         C         0.98471   0.22076   0.37024   0.048806  
         C         C         0.97373   0.26314   0.34265   0.067154  
         N         N         0.99403   0.30989   0.34915   -0.272780           
         C         C         0.98794   0.35238   0.32398   0.201986  
         C         C         0.00407   0.35074   0.28492   -0.188186           
         C         C         0.97002   0.40075   0.33950   -0.172674           
         C         C         0.00608   0.39715   0.26320   -0.127732           
         C         C         0.97050   0.44636   0.31714   -0.135897           
         C         C         0.99164   0.44622   0.27929   0.048107  
         C         C         0.96313   0.80794   0.42682   -0.135571           
         C         C         0.04683   0.82004   0.37137   -0.133128           
         C         C         0.00130   0.02641   0.57120   -0.135111           
         H         H         0.08309   0.18350   0.55336   0.115467  
         C         C         0.95771   0.13772   0.40100   -0.141814           
         H         H         0.99816   0.95072   0.59824   0.113258  
         H         H         0.43788   0.23440   0.59683   0.117731  
         H         H         0.55944   0.39571   0.60517   0.116035  
         H         H         0.56201   0.32810   0.65692   0.108107  
         H         H         0.53075   0.24092   0.68382   0.073043  
         H         H         0.53492   0.09401   0.62909   0.121432  
         H         H         0.53965   0.01453   0.67050   0.110725  
         H         H         0.46177   0.10027   0.76302   0.111634  
         H         H         0.52882   0.81746   0.73095   0.112383  
         C         C         0.51793   0.44482   0.46651   0.027820  
         C         C         0.51463   0.38868   0.46610   0.018192  
         C         C         0.51649   0.35537   0.43091   0.077767  
         C         C         0.54291   0.27128   0.40203   -0.109092           
         C         C         0.50677   0.27966   0.37067   0.048916  
         C         C         0.49686   0.23722   0.34231   0.066794  
         N         N         0.50926   0.18920   0.35069   -0.272582           
         C         C         0.50249   0.14706   0.32463   0.200756  
         C         C         0.52724   0.14635   0.28777   -0.188163           
         C         C         0.47407   0.10108   0.33743   -0.170938           
         C         C         0.52662   0.09984   0.26566   -0.130697           
         C         C         0.47213   0.05574   0.31456   -0.129730           
         C         C         0.50070   0.05323   0.27915   0.046238  
         C         C         0.53981   0.69727   0.43660   -0.139637           
         C         C         0.48496   0.67569   0.36748   -0.138013           
         C         C         0.48989   0.47301   0.57219   -0.137842           
         H         H         0.43374   0.30295   0.54546   0.117916  
         C         C         0.48285   0.36507   0.39847   -0.140261           
         H         H         0.47834   0.54840   0.59880   0.114590  
         H         H         0.92989   0.74155   0.60394   0.114536  
         H         H         0.07289   0.88629   0.59521   0.116879  
         H         H         0.07979   0.81806   0.64616   0.109860  
         H         H         0.05001   0.73330   0.67389   0.067761  
         H         H         0.93996   0.59909   0.63701   0.118878  
         H         H         0.94802   0.51571   0.67439   0.111432  
         H         H         0.03935   0.60082   0.76232   0.112267  
         H         H         0.97533   0.31707   0.72332   0.110228  
         C         C         -0.00022  0.94198   0.46386   0.025527  
         C         C         0.99831   0.88577   0.46438   0.019991  
         C         C         0.00067   0.85150   0.42964   0.080003  
         C         C         0.96846   0.77023   0.39785   -0.110224           
         C         C         0.01100   0.77536   0.36994   0.049390  
         C         C         0.01979   0.73273   0.34175   0.069403  
         N         N         0.00195   0.68552   0.34925   -0.270151           
         C         C         0.00620   0.64309   0.32340   0.202333  
         C         C         0.98042   0.64271   0.28693   -0.188205           
         C         C         0.03184   0.59656   0.33610   -0.176414           
         C         C         0.97674   0.59584   0.26539   -0.130753           
         C         C         0.02960   0.55075   0.31368   -0.126182           
         C         C         -0.00059  0.54855   0.27889   0.045169  
         C         C         0.03450   0.19047   0.42674   -0.138632           
         C         C         0.95108   0.17462   0.37153   -0.134340           
         C         C         -0.00048  0.97226   0.57116   -0.133060           
         H         H         0.92274   0.81006   0.55274   0.114191  
         C         C         0.04227   0.85721   0.40113   -0.142640           
         H         H         0.00253   0.04822   0.59835   0.111806  
         H         H         0.56057   0.77349   0.41200   0.116590  
         H         H         0.46199   0.60034   0.39227   0.113744  
         H         H         0.46302   0.66744   0.34051   0.107245  
         H         H         0.48924   0.75507   0.31563   0.066115  
         H         H         0.55608   0.90850   0.36669   0.118200  
         H         H         0.54900   0.98938   0.32705   0.112213  
         H         H         0.45619   0.90036   0.24161   0.107824  
         H         H         0.54927   0.18159   0.27742   0.113122  
         C         C         0.49640   0.55690   0.53772   0.022501  
         C         C         0.49257   0.61287   0.53729   0.020750  
         C         C         0.48976   0.64565   0.57284   0.079051  
         C         C         0.45135   0.72063   0.60773   -0.104589           
         C         C         0.49668   0.72066   0.63372   0.047828  
         C         C         0.50520   0.76451   0.66104   0.065173  
         N         N         0.47190   0.80425   0.66098   -0.291809           
         C         C         0.48098   0.84967   0.68363   0.199565  
         C         C         0.51175   0.85305   0.71828   -0.176182           
         C         C         0.45646   0.89616   0.66975   -0.153561           
         C         C         0.51956   0.90168   0.73698   -0.135280           
         C         C         0.46457   0.94444   0.68854   -0.137126           
         C         C         0.49704   0.94850   0.72220   0.058022  
         C         C         0.46220   0.30814   0.56973   -0.138191           
         C         C         0.53354   0.32281   0.63263   -0.130706           
         C         C         0.53003   0.52908   0.43299   -0.137360           
         H         H         0.56242   0.70497   0.46334   0.115686  
         C         C         0.53279   0.64329   0.60044   -0.145298           
         H         H         0.54444   0.45376   0.40700   0.115041  
         H         H         0.05398   0.26291   0.39618   0.114132  
         H         H         0.92915   0.10385   0.40293   0.116246  
         H         H         0.91785   0.16887   0.35036   0.110382  
         H         H         0.94655   0.25394   0.31780   0.075060  
         H         H         0.95626   0.40175   0.36943   0.121026  
         H         H         0.95600   0.48302   0.32991   0.111890  
         H         H         0.02010   0.39524   0.23334   0.112280  
         H         H         0.96105   0.67859   0.27652   0.113826  
         C         C         0.00203   0.05557   0.53591   0.026322  
         C         C         0.00484   0.11162   0.53540   0.022265  
         C         C         0.00538   0.14596   0.57019   0.079251  
         C         C         0.04615   0.22400   0.60160   -0.105434           
         C         C         0.00016   0.22645   0.62693   0.050311  
         C         C         0.99314   0.27195   0.65254   0.064179  
         N         N         0.02846   0.31129   0.65261   -0.290529           
         C         C         0.01936   0.35558   0.67619   0.200828  
         C         C         0.99087   0.35454   0.71182   -0.180349           
         C         C         0.04122   0.40445   0.66325   -0.157756           
         C         C         0.98346   0.40099   0.73294   -0.131806           
         C         C         0.03287   0.45077   0.68425   -0.138210           
         C         C         0.00328   0.45020   0.71930   0.056622  
         C         C         0.95693   0.81180   0.57342   -0.141776           
         C         C         0.04488   0.81667   0.62603   -0.135990           
         C         C         0.00097   0.02545   0.42864   -0.135018           
         H         H         0.06759   0.19618   0.44797   0.114613  
         C         C         0.96126   0.14635   0.59702   -0.142274           
         H         H         -0.00106  0.94975   0.40144   0.113340  
         H         H         0.56572   0.23444   0.40299   0.117055  
         H         H         0.45802   0.40073   0.39773   0.115387  
         H         H         0.45031   0.33492   0.34449   0.109038  
         H         H         0.47667   0.24757   0.31491   0.074522  
         H         H         0.45413   0.10150   0.36565   0.120783  
         H         H         0.44971   0.02088   0.32510   0.111046  
         H         H         0.54788   0.09951   0.23787   0.110547  
         H         H         0.46247   0.82057   0.28119   0.108739  
         C         C         0.50103   0.44399   0.53754   0.026624  
         C         C         0.50181   0.38779   0.53667   0.019383  
         C         C         0.49751   0.35352   0.57109   0.078832  
         C         C         0.46401   0.27003   0.59833   -0.109820           
         C         C         0.50115   0.27598   0.62962   0.048140  
         C         C         0.50856   0.23226   0.65662   0.067754  
         N         N         0.49205   0.18504   0.64723   -0.278594           
         C         C         0.49707   0.14260   0.67272   0.201695  
         C         C         0.47743   0.14398   0.71102   -0.188212           
         C         C         0.51945   0.09513   0.65862   -0.169295           
         C         C         0.47859   0.09863   0.73385   -0.127757           
         C         C         0.52166   0.05055   0.68202   -0.135974           
         C         C         0.49938   0.05069   0.71957   0.048057  
         C         C         0.44819   0.68404   0.57771   -0.141272           
         C         C         0.53645   0.68047   0.63030   -0.134105           
         C         C         0.53181   0.47494   0.43289   -0.138695           
         H         H         0.57563   0.30161   0.45562   0.114590  
         C         C         0.53190   0.36103   0.60368   -0.143690           
         H         H         0.54178   0.55110   0.40724   0.114170  
         H         H         0.94050   0.73583   0.39644   0.117456  
         H         H         0.07266   0.88962   0.40339   0.117738  
         H         H         0.08029   0.82422   0.35019   0.109032  
         H         H         0.04367   0.74226   0.31545   0.075313  
         H         H         0.05297   0.59698   0.36388   0.121388  
         H         H         0.05023   0.51556   0.32406   0.107528  
         H         H         0.95476   0.59602   0.23792   0.110373  
         H         H         0.01751   0.31347   0.27240   0.113787  
         C         C         -0.00074  0.94263   0.53588   0.025010  
         C         C         0.99709   0.88652   0.53543   0.021632  
         C         C         0.99764   0.85265   0.57015   0.077186  
         C         C         0.96059   0.77367   0.60187   -0.105562           
         C         C         0.00567   0.77461   0.62802   0.051013  
         C         C         0.01335   0.73076   0.65473   0.065563  
         N         N         0.97960   0.69027   0.65376   -0.293842           
         C         C         0.98633   0.64649   0.67771   0.199262  
         C         C         0.01364   0.64674   0.71373   -0.177489           
         C         C         0.96206   0.59862   0.66442   -0.155178           
         C         C         0.01831   0.59996   0.73452   -0.132908           
         C         C         0.96716   0.55213   0.68533   -0.137296           
         C         C         0.99662   0.55159   0.72032   0.057314  
         C         C         0.04839   0.18461   0.57367   -0.143438           
         C         C         0.95860   0.18638   0.62488   -0.132383           
         C         C         -0.00005  0.97130   0.42867   -0.138123           
         H         H         0.93004   0.80405   0.44825   0.112150  
         C         C         0.04088   0.85534   0.59756   -0.141805           
         H         H         0.00215   0.04657   0.40138   0.112453  
         H         H         0.22359   0.07201   0.12222   0.116780  
         H         H         0.08360   0.92466   0.13248   0.116716  
         H         H         0.17213   0.92215   0.17011   0.107667  
         H         H         0.26150   0.95528   0.18566   0.061791  
         H         H         0.39420   0.06422   0.15026   0.119980  
         H         H         0.48341   0.05084   0.18526   0.111640  
         H         H         0.39343   0.96704   0.27424   0.109562  
         H         H         0.69482   0.01262   0.23938   0.113261  
         C         C         0.05194   -0.00028  0.95825   0.025934  
         C         C         0.10290   0.00170   0.97982   -0.133987           
         C         C         0.10372   0.00100   0.89428   0.079247  
         C         C         0.19298   0.96241   0.87693   -0.109614           
         C         C         0.20473   0.00499   0.85188   0.050483  
         C         C         0.25764   0.00944   0.83100   0.069180  
         N         N         0.29670   0.97493   0.83403   -0.292777           
         C         C         0.34536   0.98173   0.81184   0.201865  
         C         C         0.34579   0.00465   0.77483   -0.180990           
         C         C         0.39618   0.96345   0.82674   -0.158643           
         C         C         0.39572   0.01181   0.75487   -0.129967           
         C         C         0.44615   0.97103   0.80651   -0.135225           
         C         C         0.44711   0.99663   0.77059   0.054042  
         C         C         0.85548   0.03846   0.89938   -0.140843           
         C         C         0.84185   0.96266   0.84124   -0.131710           
         C         C         0.05147   -0.00132  0.08199   0.019350  
         H         H         0.14222   0.00391   0.96412   0.113120  
         H         H         0.13527   0.07411   0.08386   0.119245  
         C         C         0.89014   0.96327   0.86368   -0.141490           
         H         H         0.72621   0.44726   0.11405   0.117766  
         H         H         0.57231   0.57156   0.14240   0.116093  
         H         H         0.65885   0.57394   0.18212   0.107249  
         H         H         0.75142   0.54441   0.19598   0.065971  
         H         H         0.88806   0.45445   0.14325   0.118903  
         H         H         0.97807   0.46125   0.17873   0.110898  
         H         H         0.89104   0.52070   0.27809   0.113168  
         H         H         0.18799   0.46844   0.23921   0.109805  
         C         C         0.54982   0.50662   0.95777   0.030200  
         C         C         0.59907   0.51933   0.97955   -0.139090           
         C         C         0.60120   0.50989   0.89333   0.080405  
         C         C         0.69723   0.48466   0.87976   -0.111043           
         C         C         0.69870   0.51746   0.84697   0.048805  
         C         C         0.74926   0.52298   0.82336   0.067873  
         N         N         0.79646   0.50492   0.83475   -0.275985           
         C         C         0.84393   0.50732   0.81104   0.202359  
         C         C         0.84513   0.48415   0.77405   -0.189824           
         C         C         0.89371   0.52984   0.82585   -0.173217           
         C         C         0.89526   0.48162   0.75354   -0.129753           
         C         C         0.94321   0.52818   0.80468   -0.131252           
         C         C         0.94552   0.50218   0.76873   0.046081  
         C         C         0.34680   0.51296   0.90348   -0.138225           
         C         C         0.34965   0.45748   0.83362   -0.133280           
         C         C         0.54850   0.50659   0.08154   0.020737  
         H         H         0.63714   0.53003   0.96413   0.116078  
         H         H         0.64012   0.44593   0.07338   0.113047  
         C         C         0.39668   0.45924   0.85733   -0.141562           
         H         H         0.77404   0.92544   0.11960   0.116697  
         H         H         0.91810   0.06865   0.13423   0.116890  
         H         H         0.82872   0.07277   0.17079   0.106579  
         H         H         0.73915   0.04145   0.18574   0.063774  
         H         H         0.60118   0.94163   0.14620   0.120671  
         H         H         0.51314   0.95686   0.18190   0.111113  
         H         H         0.60744   0.02743   0.27505   0.111341  
         H         H         0.30517   0.98095   0.23973   0.112106  
         C         C         0.94795   -0.00098  0.95825   0.025826  
         C         C         0.89701   0.99671   0.97999   -0.134593           
         C         C         0.89737   0.00061   0.89359   0.078529  
         C         C         0.80743   0.03812   0.87688   -0.108253           
         C         C         0.79940   -0.00043  0.84775   0.051059  
         C         C         0.74785   0.99566   0.82527   0.065561  
         N         N         0.70778   0.02901   0.82912   -0.292616           
         C         C         0.65890   0.02221   0.80712   0.201381  
         C         C         0.65689   -0.00024  0.76979   -0.181081           
         C         C         0.60868   0.04009   0.82334   -0.159180           
         C         C         0.60595   0.99238   0.75093   -0.130732           
         C         C         0.55788   0.03252   0.80423   -0.138676           
         C         C         0.55520   0.00701   0.76817   0.055661  
         C         C         0.14347   0.96072   0.89792   -0.140697           
         C         C         0.16448   0.04449   0.84742   -0.132282           
         C         C         0.94881   0.99517   0.08214   0.019830  
         H         H         0.85741   0.99556   0.96463   0.112695  
         H         H         0.86331   0.92182   0.08214   0.117744  
         C         C         0.11439   0.04222   0.86803   -0.141990           
         H         H         0.26400   0.55082   0.11020   0.117758  
         H         H         0.42588   0.44032   0.14566   0.114694  
         H         H         0.34091   0.44004   0.18657   0.105165  
         H         H         0.24854   0.46230   0.19823   0.063195  
         H         H         0.10758   0.55836   0.15071   0.118917  
         H         H         0.01724   0.54872   0.18555   0.112032  
         H         H         0.09820   0.45655   0.27242   0.111150  
         H         H         0.80142   0.51239   0.24318   0.113265  
         C         C         0.44712   0.48860   0.95757   0.030884  
         C         C         0.39800   0.47533   0.97936   -0.138231           
         C         C         0.39628   0.48693   0.89277   0.077337  
         C         C         0.29949   0.51020   0.88036   -0.107087           
         C         C         0.30005   0.48215   0.84512   0.050289  
         C         C         0.24990   0.47861   0.82109   0.064615  
         N         N         0.20165   0.49070   0.83496   -0.280606           
         C         C         0.15434   0.49139   0.81130   0.201808  
         C         C         0.15418   0.51499   0.77456   -0.184232           
         C         C         0.10378   0.47034   0.82588   -0.167947           
         C         C         0.10449   0.51862   0.75382   -0.130023           
         C         C         0.05478   0.47285   0.80439   -0.132863           
         C         C         0.05364   0.49873   0.76863   0.050326  
         C         C         0.64930   0.48077   0.90229   -0.137439           
         C         C         0.65050   0.54560   0.83737   -0.131637           
         C         C         0.44604   0.49730   0.08127   0.020997  
         H         H         0.36069   0.46187   0.96410   0.117535  
         H         H         0.35006   0.55233   0.06944   0.117451  
         C         C         0.60269   0.54214   0.86030   -0.141054           
         H         H         0.77497   0.06709   0.88160   0.118171  
         H         H         0.92216   0.93387   0.85888   0.116070  
         H         H         0.83653   0.93293   0.81862   0.107146  
         H         H         0.74435   0.96127   0.80570   0.065293  
         H         H         0.61040   0.05913   0.85155   0.120125  
         H         H         0.51977   0.04641   0.81774   0.110643  
         H         H         0.60538   0.97493   0.72215   0.110941  
         H         H         0.30664   0.01581   0.76143   0.113381  
         C         C         0.94805   0.99587   0.04109   0.025007  
         C         C         0.89707   0.99575   0.01947   -0.133484           
         C         C         0.89645   0.99544   0.10513   0.080459  
         C         C         0.80568   0.95672   0.12233   -0.105409           
         C         C         0.79516   -0.00041  0.14735   0.048406  
         C         C         0.74266   0.00485   0.16852   0.068595  
         N         N         0.70224   0.97027   0.16673   -0.289697           
         C         C         0.65407   0.97848   0.18907   0.201367  
         C         C         0.65499   0.00187   0.22612   -0.182708           
         C         C         0.60212   0.96123   0.17421   -0.161549           
         C         C         0.60553   0.00986   0.24634   -0.129556           
         C         C         0.55268   0.97003   0.19448   -0.137366           
         C         C         0.55322   0.99550   0.23060   0.054025  
         C         C         0.14373   0.04063   0.10252   -0.142616           
         C         C         0.16389   0.95548   0.15122   -0.130987           
         C         C         0.94884   0.00046   0.91720   0.021804  
         H         H         0.85760   0.99492   0.03506   0.112719  
         H         H         0.86160   0.06849   0.92167   0.117682  
         C         C         0.11430   0.95682   0.13017   -0.141926           
         H         H         0.26124   0.52998   0.88866   0.114623  
         H         H         0.43425   0.43856   0.84869   0.114050  
         H         H         0.35073   0.43602   0.80627   0.110534  
         H         H         0.25525   0.46443   0.79121   0.072416  
         H         H         0.10408   0.45187   0.85418   0.120745  
         H         H         0.01647   0.45527   0.81589   0.110846  
         H         H         0.10522   0.53793   0.72582   0.110313  
         H         H         0.80713   0.46611   0.76234   0.114579  
         C         C         0.44622   0.49287   0.04030   0.026175  
         C         C         0.39726   0.47827   0.01882   -0.137573           
         C         C         0.39416   0.49610   0.10447   0.075326  
         C         C         0.29991   0.52712   0.11773   -0.107413           
         C         C         0.29662   0.49558   0.15116   0.051940  
         C         C         0.24645   0.49187   0.17504   0.063161  
         N         N         0.20245   0.51951   0.16853   -0.298171           
         C         C         0.15404   0.51264   0.19123   0.196687  
         C         C         0.15062   0.48483   0.22639   -0.174274           
         C         C         0.10489   0.53573   0.17731   -0.152685           
         C         C         0.09972   0.47835   0.24544   -0.135005           
         C         C         0.05418   0.52966   0.19682   -0.139487           
         C         C         0.05015   0.49970   0.23079   0.062177  
         C         C         0.64455   0.47420   0.09701   -0.135423           
         C         C         0.65455   0.54572   0.15835   -0.130609           
         C         C         0.44746   0.49119   0.91650   0.016743  
         H         H         0.35921   0.46799   0.03449   0.117365  
         H         H         0.34661   0.53655   0.92983   0.116470  
         C         C         0.60598   0.54442   0.13610   -0.143411           
         H         H         0.22370   0.93133   0.87939   0.119401  
         H         H         0.08352   0.07302   0.86475   0.117579  
         H         H         0.17297   0.07738   0.82791   0.110149  
         H         H         0.26307   0.04492   0.81293   0.062779  
         H         H         0.39569   0.94389   0.85465   0.119702  
         H         H         0.48480   0.95659   0.81882   0.108246  
         H         H         0.39500   0.02922   0.72625   0.111042  
         H         H         0.69546   0.98883   0.75536   0.112547  
         C         C         0.05203   -0.00049  0.04097   0.025044  
         C         C         0.10300   0.00122   0.01928   -0.134460           
         C         C         0.10383   -0.00108  0.10494   0.079586  
         C         C         0.19291   0.03974   0.12388   -0.104949           
         C         C         0.20416   0.99656   0.14814   0.048500  
         C         C         0.25649   0.99237   0.16953   0.069121  
         N         N         0.29550   0.02846   0.16896   -0.291565           
         C         C         0.34388   0.02095   0.19110   0.202470  
         C         C         0.34433   0.99462   0.22688   -0.181917           
         C         C         0.39481   0.04213   0.17714   -0.160378           
         C         C         0.39436   0.98711   0.24652   -0.134225           
         C         C         0.44469   0.03412   0.19685   -0.135390           
         C         C         0.44576   0.00534   0.23151   0.055584  
         C         C         0.85535   0.95496   0.10147   -0.140652           
         C         C         0.83654   0.03949   0.15153   -0.130935           
         C         C         0.05143   0.00012   0.91723   0.020649  
         H         H         0.14253   0.00246   0.03472   0.114562  
         H         H         0.13458   0.92784   0.91729   0.118162  
         C         C         0.88664   0.03728   0.13104   -0.141274           
         H         H         0.73429   0.46231   0.88685   0.118780  
         H         H         0.56615   0.56514   0.85309   0.115773  
         H         H         0.65102   0.57105   0.81207   0.107222  
         H         H         0.74523   0.54435   0.79590   0.072024  
         H         H         0.89267   0.54848   0.85420   0.120628  
         H         H         0.98087   0.54635   0.81682   0.112017  
         H         H         0.89553   0.46221   0.72544   0.108412  
         H         H         0.19273   0.53227   0.76313   0.112779  
         C         C         0.54914   0.50780   0.04048   0.025800  
         C         C         0.59890   0.51955   0.01905   -0.135296           
         C         C         0.60035   0.50906   0.10477   0.075974  
         C         C         0.69248   0.47469   0.11955   -0.108843           
         C         C         0.69849   0.51095   0.15041   0.050745  
         C         C         0.74952   0.51352   0.17346   0.065417  
         N         N         0.79075   0.48228   0.16689   -0.292124           
         C         C         0.83908   0.48588   0.18965   0.197727  
         C         C         0.84029   0.50324   0.22842   -0.180408           
         C         C         0.88943   0.46971   0.17266   -0.156631           
         C         C         0.89077   0.50748   0.24814   -0.128322           
         C         C         0.93985   0.47399   0.19272   -0.143240           
         C         C         0.94174   0.49441   0.23043   0.058291  
         C         C         0.34774   0.52729   0.09489   -0.140694           
         C         C         0.34299   0.46482   0.16094   -0.133851           
         C         C         0.54964   0.50498   0.91668   0.015438  
         H         H         0.63681   0.53010   0.03481   0.117202  
         H         H         0.64806   0.45414   0.92687   0.116779  
         C         C         0.39088   0.46516   0.13811   -0.140770           
         C         C         0.50026   0.00092   0.74537   0.014473  
         C         C         -0.00038  0.50069   0.74444   0.015253  
         C         C         0.49992   0.00132   0.25531   0.013923  
         C         C         0.99567   0.49701   0.25465   0.015044  
         C         C         -0.00000  0.99793   0.02035   -0.000686           
         C         C         0.00027   0.00075   0.89785   -0.191675           
         H         H         0.00043   0.00177   0.86643   0.115211  
         C         C         0.49789   0.49958   0.01970   0.000102  
         C         C         0.49856   0.49894   0.89744   -0.184470           
         H         H         0.49836   0.50070   0.86607   0.109074  
         C         C         -0.00008  -0.00120  0.97892   -0.000313           
         C         C         0.00018   0.99637   0.10148   -0.193885           
         H         H         0.00029   0.99584   0.13291   0.118676  
         C         C         0.49828   0.49821   0.97827   -0.002779           
         C         C         0.49716   0.50256   0.10073   -0.191239           
         H         H         0.49693   0.50333   0.13217   0.115443  
         C         C         0.50877   0.47261   0.50214   -0.000128           
         C         C         0.50706   0.36200   0.50107   -0.186418           
         H         H         0.50525   0.31896   0.50049   0.111731  
         C         C         0.00004   0.97054   0.49984   0.001396  
         C         C         0.99600   0.85990   0.49996   -0.187958           
         H         H         0.99635   0.81687   0.50014   0.113852  
         C         C         0.50631   0.52925   0.50215   0.000447  
         C         C         0.49508   0.63923   0.50194   -0.185278           
         H         H         0.48975   0.68193   0.50178   0.114283  
         C         C         0.00096   0.02726   0.49983   -0.000349           
         C         C         0.00567   0.13786   0.49994   -0.189881           
         H         H         0.00549   0.18091   0.50023   0.114461 

