
##########################################################################
#               Crystallographic Information Format file
#               Produced by PyCifRW module
#
#  This is a CIF file.  CIF has been adopted by the International
#  Union of Crystallography as the standard for data archiving and
#  transmission.
#
#  For information on this file format, follow the CIF links at
#  http://www.iucr.org
##########################################################################

data_image0

_cell_length_a                          42.1141
_cell_length_b                          42.1755
_cell_length_c                          9.35482
_cell_angle_alpha                       87.2927
_cell_angle_beta                        91.0863
_cell_angle_gamma                       120.09
_symmetry_space_group_name_H-M          'P 1'
_space_group_name_Hall                  'P 1'
loop_
  _atom_site_type_symbol
  _atom_site_label
  _atom_site_fract_x
  _atom_site_fract_y
  _atom_site_fract_z
  _atom_site_charge
         C         C         0.48358   0.48476   0.25682   -0.026971           
         C         C         0.44869   0.48551   0.26164   0.061538  
         C         C         0.41848   0.46177   0.17782   -0.119733           
         C         C         0.38554   0.46195   0.17945   -0.182317           
         C         C         0.38123   0.48598   0.26662   0.201901  
         C         C         0.41137   0.50981   0.35024   -0.156170           
         C         C         0.44394   0.50918   0.34837   -0.122515           
         H         H         0.46682   0.52783   0.41282   0.100010  
         C         C         0.47805   0.44711   0.25346   0.054739  
         C         C         0.44986   0.41819   0.33651   -0.121624           
         C         C         0.44316   0.38243   0.33358   -0.167605           
         C         C         0.46525   0.37426   0.24926   0.205938  
         C         C         0.49322   0.40278   0.16451   -0.183963           
         C         C         0.49915   0.43824   0.16678   -0.117720           
         N         N         0.34990   0.48924   0.27181   -0.294680           
         C         C         0.31756   0.46206   0.24410   0.058585  
         N         N         0.45822   0.33820   0.24860   -0.285081           
         C         C         0.48573   0.33252   0.25952   0.062710  
         C         C         0.48119   0.29664   0.24954   -0.011619           
         H         H         0.42150   0.44371   0.10700   0.106618  
         H         H         0.36353   0.44467   0.10788   0.110538  
         H         H         0.40814   0.52819   0.41849   0.121820  
         H         H         0.43326   0.42420   0.40574   0.102732  
         H         H         0.42183   0.36061   0.40035   0.126046  
         H         H         0.50912   0.39642   0.09286   0.115069  
         H         H         0.52090   0.45989   0.10173   0.101691  
         H         H         0.31230   0.43437   0.22345   0.079579  
         H         H         0.51377   0.35478   0.28050   0.080084  
         C         C         0.50754   0.28651   0.27944   -0.198524           
         C         C         0.49321   0.24870   0.26315   -0.012422           
         C         C         0.45610   0.23027   0.21882   -0.013972           
         S         S         0.43890   0.25991   0.19891   0.127528  
         C         C         0.28605   0.46673   0.24237   -0.006977           
         C         C         0.24953   0.44003   0.22090   -0.201514           
         S         S         0.29162   0.50998   0.27219   0.119150  
         H         H         0.53524   0.30585   0.31258   0.143217  
         H         H         0.24094   0.41170   0.20109   0.141586  
         C         C         0.51632   0.99902   0.25400   -0.025379           
         C         C         0.51415   0.96268   0.25749   0.060948  
         C         C         0.53746   0.95731   0.16760   -0.123126           
         C         C         0.53542   0.92346   0.16143   -0.181873           
         C         C         0.50996   0.89322   0.24772   0.202995  
         C         C         0.48664   0.89834   0.33832   -0.157944           
         C         C         0.48914   0.93233   0.34390   -0.117617           
         H         H         0.47094   0.93553   0.41472   0.101333  
         C         C         0.55436   0.03073   0.24692   0.054199  
         C         C         0.58273   0.02970   0.32615   -0.123367           
         C         C         0.61856   0.05899   0.32139   -0.166418           
         C         C         0.62752   0.09122   0.23895   0.208569  
         C         C         0.59965   0.09222   0.15635   -0.183649           
         C         C         0.56414   0.06250   0.16049   -0.116124           
         N         N         0.50540   0.85807   0.24649   -0.294329           
         C         C         0.53303   0.85353   0.22119   0.060228  
         N         N         0.66369   0.12034   0.23826   -0.284435           
         C         C         0.66959   0.15338   0.24953   0.062707  
         C         C         0.70571   0.18506   0.23950   -0.013593           
         H         H         0.55684   0.98019   0.09887   0.102705  
         H         H         0.55241   0.91985   0.08500   0.112345  
         H         H         0.46731   0.87522   0.40635   0.122937  
         H         H         0.57628   0.00539   0.39289   0.103847  
         H         H         0.63995   0.05798   0.38486   0.125822  
         H         H         0.60645   0.11597   0.08536   0.114272  
         H         H         0.54310   0.06389   0.09690   0.101805  
         H         H         0.56125   0.87659   0.20688   0.079448  
         H         H         0.64712   0.15882   0.26968   0.078968  
         C         C         0.71528   0.22088   0.26894   -0.198282           
         C         C         0.75321   0.24515   0.25053   -0.014662           
         C         C         0.77249   0.22786   0.20530   -0.013113           
         S         S         0.74334   0.18118   0.18728   0.129231  
         C         C         0.52850   0.81753   0.21578   -0.007447           
         C         C         0.55601   0.80870   0.20043   -0.199468           
         S         S         0.48471   0.77874   0.23725   0.118781  
         H         H         0.69545   0.22828   0.30327   0.142460  
         H         H         0.58478   0.82926   0.18638   0.141800  
         C         C         0.00271   0.51919   0.24675   -0.023537           
         C         C         0.03854   0.55375   0.25146   0.056095  
         C         C         0.04434   0.58487   0.16707   -0.119668           
         C         C         0.07819   0.61714   0.16355   -0.186371           
         C         C         0.10774   0.61951   0.24529   0.205698  
         C         C         0.10195   0.58880   0.33201   -0.162067           
         C         C         0.06800   0.55707   0.33597   -0.118895           
         H         H         0.06409   0.53363   0.40238   0.101325  
         C         C         0.97066   0.52492   0.23941   0.055435  
         C         C         0.96931   0.55031   0.32836   -0.124887           
         C         C         0.93980   0.55642   0.32563   -0.164483           
         C         C         0.90975   0.53656   0.23511   0.206252  
         C         C         0.91140   0.51200   0.14227   -0.183059           
         C         C         0.94139   0.50670   0.14436   -0.113250           
         N         N         0.14297   0.64999   0.24058   -0.288855           
         C         C         0.14764   0.68282   0.23516   0.060153  
         N         N         0.88042   0.54318   0.23693   -0.287601           
         C         C         0.84727   0.51585   0.22484   0.060932  
         C         C         0.81608   0.52096   0.21760   -0.008327           
         H         H         0.02208   0.58320   0.10083   0.106955  
         H         H         0.08255   0.64022   0.09268   0.110865  
         H         H         0.12445   0.59092   0.39781   0.123075  
         H         H         0.99178   0.56507   0.40193   0.100860  
         H         H         0.93884   0.57559   0.39664   0.125753  
         H         H         0.88978   0.49854   0.06403   0.114342  
         H         H         0.94252   0.48815   0.07084   0.099168  
         H         H         0.12473   0.68814   0.24456   0.079500  
         H         H         0.84120   0.48727   0.22287   0.080223  
         C         C         0.77935   0.49337   0.21959   -0.198769           
         C         C         0.75578   0.50803   0.21674   -0.012199           
         C         C         0.77469   0.54687   0.21034   -0.013023           
         S         S         0.82186   0.56514   0.20991   0.124536  
         C         C         0.18359   0.71443   0.22211   -0.009885           
         C         C         0.19282   0.75091   0.23256   -0.200240           
         S         S         0.22172   0.70911   0.19624   0.122734  
         H         H         0.77082   0.46441   0.22484   0.142420  
         H         H         0.17256   0.75909   0.24942   0.141743  
         C         C         0.51782   0.51623   0.25479   -0.028080           
         C         C         0.55274   0.51549   0.25889   0.061798  
         C         C         0.58233   0.54003   0.16922   -0.120554           
         C         C         0.61486   0.53909   0.16599   -0.182557           
         C         C         0.61945   0.51370   0.25456   0.204718  
         C         C         0.59021   0.48945   0.34608   -0.159505           
         C         C         0.55799   0.49072   0.34817   -0.121047           
         H         H         0.53571   0.47150   0.41778   0.100620  
         C         C         0.52309   0.55387   0.24596   0.057648  
         C         C         0.55027   0.58162   0.32915   -0.124287           
         C         C         0.55569   0.61700   0.32371   -0.163526           
         C         C         0.53367   0.62610   0.23567   0.205555  
         C         C         0.50723   0.59893   0.14859   -0.181845           
         C         C         0.50241   0.56382   0.15415   -0.115835           
         N         N         0.65050   0.50996   0.25288   -0.290626           
         C         C         0.68282   0.53818   0.22788   0.058635  
         N         N         0.53980   0.66188   0.23505   -0.283498           
         C         C         0.51190   0.66703   0.23252   0.059805  
         C         C         0.51637   0.70314   0.22387   -0.007614           
         H         H         0.57917   0.55945   0.09836   0.104939  
         H         H         0.63641   0.55696   0.09008   0.109190  
         H         H         0.59373   0.47019   0.41659   0.123027  
         H         H         0.56700   0.57500   0.40066   0.102513  
         H         H         0.57613   0.63795   0.39063   0.125176  
         H         H         0.49162   0.60604   0.07287   0.114092  
         H         H         0.48183   0.54313   0.08747   0.100411  
         H         H         0.68784   0.56642   0.21642   0.078580  
         H         H         0.48341   0.64412   0.23984   0.079524  
         C         C         0.48871   0.71193   0.23467   -0.201030           
         C         C         0.50304   0.75017   0.22603   -0.012213           
         C         C         0.54162   0.77045   0.20708   -0.013167           
         S         S         0.56009   0.74188   0.20108   0.127366  
         C         C         0.71440   0.53389   0.21835   -0.008295           
         C         C         0.75111   0.56155   0.20976   -0.202004           
         S         S         0.70869   0.48973   0.22418   0.122592  
         H         H         0.45999   0.69135   0.24975   0.142174  
         H         H         0.75966   0.59051   0.20584   0.141530  
         C         C         0.48540   0.00273   0.25310   -0.030783           
         C         C         0.48637   0.03833   0.25868   0.063263  
         C         C         0.46161   0.04465   0.17514   -0.120257           
         C         C         0.46164   0.07761   0.17666   -0.179829           
         C         C         0.48659   0.10598   0.26350   0.202970  
         C         C         0.51156   0.09991   0.34635   -0.155824           
         C         C         0.51113   0.06686   0.34434   -0.123474           
         H         H         0.53079   0.06294   0.40763   0.101540  
         C         C         0.44767   0.97085   0.24415   0.058144  
         C         C         0.41893   0.96860   0.32716   -0.126035           
         C         C         0.38345   0.93893   0.32040   -0.159724           
         C         C         0.37539   0.90966   0.23215   0.203771  
         C         C         0.40368   0.91237   0.14469   -0.177835           
         C         C         0.43878   0.94238   0.15103   -0.114379           
         N         N         0.48980   0.14044   0.26987   -0.296346           
         C         C         0.46297   0.14598   0.23395   0.056538  
         N         N         0.33966   0.87984   0.23431   -0.293146           
         C         C         0.33437   0.84747   0.21006   0.060460  
         C         C         0.29820   0.81617   0.20738   -0.007719           
         H         H         0.44272   0.02341   0.10529   0.105414  
         H         H         0.44318   0.08188   0.10591   0.110964  
         H         H         0.53067   0.12166   0.41386   0.123057  
         H         H         0.42479   0.99028   0.39955   0.103943  
         H         H         0.36165   0.93711   0.38702   0.124793  
         H         H         0.39757   0.89141   0.06822   0.112911  
         H         H         0.46035   0.94429   0.08352   0.097677  
         H         H         0.43560   0.12405   0.20308   0.080044  
         H         H         0.35707   0.84212   0.19429   0.080590  
         C         C         0.28895   0.77981   0.19178   -0.200766           
         C         C         0.25070   0.75612   0.20057   -0.012306           
         C         C         0.23100   0.77465   0.22153   -0.014321           
         S         S         0.26001   0.82151   0.23140   0.125612  
         C         C         0.46775   0.18209   0.23561   -0.006811           
         C         C         0.44170   0.19245   0.20263   -0.202618           
         S         S         0.51015   0.21887   0.28597   0.120199  
         H         H         0.30927   0.77156   0.17716   0.143673  
         H         H         0.41396   0.17320   0.16964   0.141982  
         C         C         0.99920   0.48472   0.24889   -0.029864           
         C         C         0.96313   0.45022   0.25236   0.063380  
         C         C         0.95842   0.42076   0.17100   -0.121447           
         C         C         0.92530   0.38793   0.16857   -0.177384           
         C         C         0.89506   0.38280   0.24996   0.201011  
         C         C         0.89947   0.41220   0.33061   -0.155812           
         C         C         0.93273   0.44481   0.33274   -0.121317           
         H         H         0.93538   0.46683   0.39648   0.101980  
         C         C         0.03103   0.47856   0.24645   0.054767  
         C         C         0.03062   0.44988   0.33200   -0.122507           
         C         C         0.05961   0.44297   0.33159   -0.165378           
         C         C         0.09101   0.46520   0.24682   0.206639  
         C         C         0.09145   0.49349   0.15863   -0.182124           
         C         C         0.06207   0.49972   0.15908   -0.117301           
         N         N         0.86051   0.35121   0.25453   -0.299607           
         C         C         0.85596   0.31974   0.21939   0.057151  
         N         N         0.11992   0.45790   0.25011   -0.285671           
         C         C         0.15333   0.48518   0.25329   0.061579  
         C         C         0.18457   0.48016   0.24711   -0.010111           
         H         H         0.98128   0.42441   0.10621   0.103465  
         H         H         0.92241   0.36667   0.09903   0.111405  
         H         H         0.87628   0.40828   0.39394   0.121173  
         H         H         0.00708   0.43288   0.40101   0.101670  
         H         H         0.05912   0.42129   0.40085   0.126020  
         H         H         0.11460   0.50975   0.08681   0.114033  
         H         H         0.06338   0.52211   0.09294   0.102279  
         H         H         0.87869   0.31555   0.18959   0.081544  
         H         H         0.15953   0.51360   0.26406   0.079137  
         C         C         0.22115   0.50702   0.26531   -0.199391           
         C         C         0.24472   0.49251   0.25622   -0.011834           
         C         C         0.22599   0.45461   0.22941   -0.013326           
         S         S         0.17899   0.43698   0.21677   0.127115  
         C         C         0.82005   0.28784   0.22093   -0.006701           
         C         C         0.81050   0.25220   0.18824   -0.201403           
         S         S         0.78230   0.29161   0.27247   0.119531  
         H         H         0.22954   0.53532   0.28509   0.142053  
         H         H         0.83037   0.24483   0.15420   0.143015  
         C         C         0.48151   0.48403   0.75280   -0.030265           
         C         C         0.44689   0.48500   0.76165   0.058829  
         C         C         0.41639   0.46175   0.67845   -0.120564           
         C         C         0.38394   0.46284   0.68112   -0.182831           
         C         C         0.38055   0.48726   0.76910   0.203620  
         C         C         0.41087   0.51049   0.85326   -0.160088           
         C         C         0.44287   0.50880   0.85053   -0.118787           
         H         H         0.46589   0.52658   0.91639   0.099141  
         C         C         0.47619   0.44656   0.74531   0.058337  
         C         C         0.44857   0.41680   0.82706   -0.125560           
         C         C         0.44378   0.38173   0.82326   -0.163377           
         C         C         0.46692   0.37493   0.73892   0.206954  
         C         C         0.49366   0.40419   0.65251   -0.179893           
         C         C         0.49782   0.43891   0.65621   -0.114251           
         N         N         0.34952   0.49100   0.77244   -0.290317           
         C         C         0.31698   0.46283   0.75733   0.059992  
         N         N         0.46152   0.33942   0.74210   -0.288110           
         C         C         0.48959   0.33465   0.73517   0.059232  
         C         C         0.48525   0.29868   0.73191   -0.008492           
         H         H         0.41877   0.44330   0.60770   0.105170  
         H         H         0.36163   0.44610   0.60965   0.111600  
         H         H         0.40824   0.52895   0.92312   0.123919  
         H         H         0.43097   0.42151   0.89598   0.105126  
         H         H         0.42298   0.35922   0.88932   0.125318  
         H         H         0.51014   0.39907   0.57907   0.112444  
         H         H         0.51870   0.46125   0.59065   0.099030  
         H         H         0.31195   0.43463   0.75389   0.078583  
         H         H         0.51805   0.35765   0.73553   0.080718  
         C         C         0.51303   0.28981   0.74117   -0.202267           
         C         C         0.49865   0.25160   0.74026   -0.013205           
         C         C         0.45995   0.23149   0.72788   -0.013459           
         S         S         0.44136   0.26006   0.72019   0.126156  
         C         C         0.28535   0.46722   0.74781   -0.008321           
         C         C         0.24860   0.43981   0.74106   -0.200453           
         S         S         0.29132   0.51147   0.74513   0.119538  
         H         H         0.54186   0.31034   0.74965   0.143361  
         H         H         0.23985   0.41081   0.74195   0.141970  
         C         C         0.51409   0.99726   0.75082   -0.027272           
         C         C         0.51252   0.96127   0.75378   0.060756  
         C         C         0.53620   0.95646   0.66412   -0.120497           
         C         C         0.53533   0.92313   0.66057   -0.182477           
         C         C         0.51065   0.89296   0.74899   0.202546  
         C         C         0.48682   0.89750   0.83876   -0.159320           
         C         C         0.48811   0.93095   0.84160   -0.119785           
         H         H         0.46947   0.93374   0.91125   0.102439  
         C         C         0.55208   0.02899   0.74387   0.056699  
         C         C         0.58021   0.02810   0.82531   -0.124463           
         C         C         0.61607   0.05719   0.81959   -0.163427           
         C         C         0.62524   0.08886   0.73288   0.206640  
         C         C         0.59762   0.08960   0.64761   -0.181555           
         C         C         0.56199   0.06019   0.65377   -0.115372           
         N         N         0.50715   0.85831   0.74902   -0.291770           
         C         C         0.53537   0.85454   0.72614   0.057481  
         N         N         0.66145   0.11782   0.73296   -0.285228           
         C         C         0.66723   0.15103   0.73521   0.060588  
         C         C         0.70356   0.18238   0.73088   -0.010990           
         H         H         0.55496   0.97935   0.59391   0.102120  
         H         H         0.55254   0.91980   0.58434   0.112767  
         H         H         0.46812   0.87442   0.90837   0.122831  
         H         H         0.57350   0.00401   0.89399   0.102854  
         H         H         0.63744   0.05660   0.88483   0.125584  
         H         H         0.60479   0.11284   0.57308   0.112331  
         H         H         0.54093   0.06106   0.58823   0.100797  
         H         H         0.56346   0.87798   0.71401   0.081271  
         H         H         0.64460   0.15676   0.74489   0.080105  
         C         C         0.71300   0.21857   0.75146   -0.202454           
         C         C         0.75130   0.24215   0.74609   -0.013009           
         C         C         0.77096   0.22391   0.71914   -0.016136           
         S         S         0.74171   0.17723   0.70252   0.128211  
         C         C         0.53097   0.81864   0.71976   -0.007659           
         C         C         0.55829   0.80932   0.71157   -0.200553           
         S         S         0.48657   0.78036   0.72843   0.118961  
         H         H         0.69279   0.22671   0.77063   0.143659  
         H         H         0.58737   0.82952   0.70670   0.142311  
         C         C         -0.00032  0.51617   0.74255   -0.026137           
         C         C         0.03564   0.55069   0.75036   0.058919  
         C         C         0.04334   0.58185   0.66261   -0.121190           
         C         C         0.07724   0.61404   0.66660   -0.185520           
         C         C         0.10497   0.61640   0.75998   0.204559  
         C         C         0.09738   0.58543   0.84877   -0.160296           
         C         C         0.06339   0.55375   0.84443   -0.120411           
         H         H         0.05791   0.53010   0.91286   0.099268  
         C         C         0.96750   0.52158   0.73595   0.056317  
         C         C         0.96744   0.54913   0.81579   -0.123678           
         C         C         0.93755   0.55461   0.81529   -0.161400           
         C         C         0.90595   0.53225   0.73572   0.204485  
         C         C         0.90633   0.50564   0.65071   -0.179827           
         C         C         0.93643   0.50058   0.65158   -0.114071           
         N         N         0.14008   0.64710   0.76447   -0.286089           
         C         C         0.14456   0.67990   0.75607   0.060913  
         N         N         0.87629   0.53816   0.74406   -0.290424           
         C         C         0.84308   0.51073   0.73351   0.057955  
         C         C         0.81189   0.51576   0.73795   -0.006888           
         H         H         0.02260   0.58046   0.58808   0.103650  
         H         H         0.08308   0.63714   0.59323   0.111667  
         H         H         0.11840   0.58729   0.92288   0.124071  
         H         H         0.99114   0.56581   0.88148   0.103800  
         H         H         0.93733   0.57515   0.88071   0.125184  
         H         H         0.88338   0.48995   0.58012   0.112484  
         H         H         0.93611   0.47992   0.58594   0.102074  
         H         H         0.12132   0.68492   0.75562   0.077986  
         H         H         0.83704   0.48231   0.72503   0.079284  
         C         C         0.77502   0.48853   0.73428   -0.201451           
         C         C         0.75181   0.50340   0.74501   -0.012262           
         C         C         0.77111   0.54200   0.75583   -0.012126           
         S         S         0.81820   0.55980   0.75379   0.125625  
         C         C         0.18056   0.71182   0.74949   -0.011047           
         C         C         0.18943   0.74832   0.75605   -0.200349           
         S         S         0.21923   0.70689   0.73224   0.120640  
         H         H         0.76612   0.45970   0.72452   0.142500  
         H         H         0.16890   0.75643   0.76727   0.141694  
         C         C         0.51589   0.51545   0.75071   -0.026200           
         C         C         0.55035   0.51396   0.76133   0.057792  
         C         C         0.58145   0.53833   0.67851   -0.120349           
         C         C         0.61358   0.53657   0.68482   -0.187332           
         C         C         0.61599   0.51025   0.77600   0.206083  
         C         C         0.58504   0.48585   0.85967   -0.160365           
         C         C         0.55342   0.48822   0.85314   -0.118570           
         H         H         0.52978   0.46927   0.91747   0.099783  
         C         C         0.52142   0.55314   0.73950   0.057572  
         C         C         0.55024   0.58172   0.81425   -0.128057           
         C         C         0.55594   0.61718   0.80653   -0.160664           
         C         C         0.53241   0.62567   0.72559   0.205264  
         C         C         0.50442   0.59771   0.64582   -0.179957           
         C         C         0.49939   0.56256   0.65300   -0.113451           
         N         N         0.64663   0.50581   0.78189   -0.288736           
         C         C         0.67951   0.53404   0.77357   0.059626  
         N         N         0.53874   0.66147   0.72591   -0.287573           
         C         C         0.51114   0.66713   0.72058   0.059592  
         C         C         0.51647   0.70351   0.71661   -0.007630           
         H         H         0.57998   0.55846   0.60592   0.104192  
         H         H         0.63655   0.55449   0.61457   0.112695  
         H         H         0.58682   0.46584   0.93195   0.123849  
         H         H         0.56809   0.57564   0.88114   0.103969  
         H         H         0.57783   0.63872   0.86686   0.124393  
         H         H         0.48744   0.60408   0.57465   0.112596  
         H         H         0.47747   0.54142   0.59212   0.101115  
         H         H         0.68487   0.56239   0.77400   0.078416  
         H         H         0.48240   0.64467   0.72282   0.079275  
         C         C         0.48921   0.71299   0.72166   -0.201144           
         C         C         0.50435   0.75129   0.72075   -0.012692           
         C         C         0.54318   0.77098   0.71312   -0.013256           
         S         S         0.56087   0.74171   0.70909   0.125313  
         C         C         0.71099   0.52956   0.76491   -0.009168           
         C         C         0.74785   0.55684   0.76632   -0.199216           
         S         S         0.70473   0.48552   0.74982   0.118949  
         H         H         0.46016   0.69281   0.72671   0.141735  
         H         H         0.75675   0.58568   0.77505   0.141701  
         C         C         0.48324   0.00099   0.75106   -0.028173           
         C         C         0.48537   0.03711   0.75910   0.059499  
         C         C         0.46303   0.04579   0.67075   -0.121025           
         C         C         0.46541   0.07989   0.67237   -0.182135           
         C         C         0.49038   0.10694   0.76377   0.201964  
         C         C         0.51266   0.09834   0.85299   -0.157764           
         C         C         0.50965   0.06406   0.85152   -0.121041           
         H         H         0.52670   0.05760   0.92102   0.098927  
         C         C         0.44534   0.96947   0.74277   0.057638  
         C         C         0.41690   0.96850   0.82378   -0.126447           
         C         C         0.38129   0.93895   0.82089   -0.159408           
         C         C         0.37269   0.90850   0.73884   0.203921  
         C         C         0.40058   0.90996   0.65235   -0.179952           
         C         C         0.43585   0.93989   0.65451   -0.114560           
         N         N         0.49561   0.14235   0.76688   -0.292007           
         C         C         0.46833   0.14802   0.74394   0.059858  
         N         N         0.33683   0.87886   0.74652   -0.291979           
         C         C         0.33115   0.84601   0.73032   0.058680  
         C         C         0.29495   0.81453   0.73328   -0.005053           
         H         H         0.44436   0.02569   0.59666   0.104664  
         H         H         0.44918   0.08639   0.59750   0.112362  
         H         H         0.53163   0.11897   0.92479   0.122536  
         H         H         0.42334   0.99115   0.89186   0.105184  
         H         H         0.35978   0.93809   0.88638   0.124516  
         H         H         0.39406   0.88806   0.57999   0.114576  
         H         H         0.45694   0.94066   0.58732   0.099378  
         H         H         0.44000   0.12550   0.72994   0.079296  
         H         H         0.35375   0.84039   0.71706   0.079357  
         C         C         0.28602   0.77806   0.72399   -0.202072           
         C         C         0.24782   0.75404   0.73332   -0.011005           
         C         C         0.22767   0.77233   0.74803   -0.013973           
         S         S         0.25634   0.81944   0.75254   0.125258  
         C         C         0.47316   0.18426   0.73894   -0.010255           
         C         C         0.44555   0.19329   0.72618   -0.199670           
         S         S         0.51708   0.22287   0.75194   0.120167  
         H         H         0.30651   0.76997   0.71137   0.143256  
         H         H         0.41670   0.17284   0.71731   0.141512  
         C         C         0.99662   0.48189   0.74425   -0.028135           
         C         C         0.96081   0.44702   0.75108   0.060863  
         C         C         0.95449   0.41874   0.65984   -0.121366           
         C         C         0.92146   0.38567   0.66162   -0.180122           
         C         C         0.89315   0.37918   0.75764   0.201092  
         C         C         0.89919   0.40748   0.84824   -0.158500           
         C         C         0.93230   0.44031   0.84564   -0.117981           
         H         H         0.93636   0.46140   0.91788   0.100586  
         C         C         0.02883   0.47652   0.73958   0.058532  
         C         C         0.02920   0.44795   0.82324   -0.125152           
         C         C         0.05906   0.44239   0.82185   -0.162060           
         C         C         0.09034   0.46562   0.73779   0.206530  
         C         C         0.08986   0.49370   0.65120   -0.179865           
         C         C         0.05974   0.49874   0.65262   -0.113803           
         N         N         0.85887   0.34727   0.76559   -0.292290           
         C         C         0.85460   0.31574   0.73344   0.055960  
         N         N         0.11967   0.45896   0.74172   -0.288385           
         C         C         0.15302   0.48637   0.73152   0.059842  
         C         C         0.18410   0.48106   0.72969   -0.007712           
         H         H         0.97581   0.42350   0.58378   0.102518  
         H         H         0.91693   0.36536   0.58433   0.112786  
         H         H         0.87763   0.40249   0.92343   0.123253  
         H         H         0.00577   0.43026   0.89181   0.104504  
         H         H         0.05935   0.42078   0.88895   0.124639  
         H         H         0.11282   0.51075   0.57951   0.111747  
         H         H         0.05998   0.52069   0.58675   0.100263  
         H         H         0.87755   0.31161   0.70634   0.082700  
         H         H         0.15943   0.51511   0.72778   0.078929  
         C         C         0.22093   0.50846   0.73125   -0.201994           
         C         C         0.24429   0.49353   0.73513   -0.012662           
         C         C         0.22519   0.45472   0.73464   -0.012973           
         S         S         0.17806   0.43680   0.72999   0.125379  
         C         C         0.81863   0.28384   0.73353   -0.008811           
         C         C         0.80927   0.24771   0.71116   -0.200802           
         S         S         0.78040   0.28870   0.76502   0.121225  
         H         H         0.22971   0.53745   0.73192   0.142313  
         H         H         0.82941   0.23957   0.69073   0.143137 

