
##########################################################################
#               Crystallographic Information Format file
#               Produced by PyCifRW module
#
#  This is a CIF file.  CIF has been adopted by the International
#  Union of Crystallography as the standard for data archiving and
#  transmission.
#
#  For information on this file format, follow the CIF links at
#  http://www.iucr.org
##########################################################################

data_image0

_cell_length_a                          25.3335
_cell_length_b                          25.3343
_cell_length_c                          11.3462
_cell_angle_alpha                       50.5566
_cell_angle_beta                        93.0313
_cell_angle_gamma                       109.111
_symmetry_space_group_name_H-M          'P 1'
_space_group_name_Hall                  'P 1'
loop_
  _atom_site_type_symbol
  _atom_site_label
  _atom_site_fract_x
  _atom_site_fract_y
  _atom_site_fract_z
  _atom_site_charge
         C         C         0.08536   0.09560   0.24472   -0.221565           
         C         C         0.58715   0.58872   0.29382   -0.140497           
         C         C         0.99329   0.02164   0.19803   -0.214155           
         C         C         0.50058   0.53862   0.18586   -0.136966           
         C         C         0.49663   0.58502   0.20884   -0.109012           
         C         C         0.04305   0.00878   0.20719   0.226862  
         C         C         0.59087   0.54203   0.27166   -0.109813           
         C         C         0.03516   0.10747   0.23789   0.236042  
         C         C         0.54818   0.46301   0.20369   0.058537  
         C         C         0.93355   0.08186   0.18883   0.091270  
         C         C         0.54011   0.66383   0.27773   0.060409  
         C         C         0.14890   0.04624   0.22898   0.085401  
         C         C         0.54024   0.61102   0.26263   0.054049  
         C         C         0.09202   0.04786   0.22627   0.002082  
         C         C         0.54733   0.51594   0.21797   0.055257  
         C         C         0.98771   0.07221   0.20823   -0.006693           
         N         N         0.49934   0.68818   0.24806   -0.285391           
         N         N         0.16564   0.00485   0.22245   -0.262840           
         N         N         0.58674   0.43448   0.24818   -0.278189           
         N         N         0.92433   0.13574   0.16057   -0.251375           
         N         N         0.49004   0.10847   0.25144   -0.257654           
         N         N         0.59710   0.01669   0.23505   -0.259936           
         H         H         0.51382   0.08035   0.26290   0.268493  
         H         H         0.57183   0.03558   0.25488   0.272622  
         C         C         0.43310   0.09089   0.24176   0.181353  
         C         C         0.57853   0.96399   0.21998   0.185277  
         C         C         0.65591   0.04433   0.21038   0.177150  
         C         C         0.51026   0.17003   0.23839   0.185908  
         C         C         0.41777   0.14763   0.21118   -0.188127           
         C         C         0.62866   0.95994   0.17858   -0.177747           
         C         C         0.67560   0.00815   0.17443   -0.190276           
         C         C         0.46350   0.19333   0.21620   -0.182347           
         H         H         0.37713   0.15312   0.18816   0.134225  
         H         H         0.62827   0.92528   0.15311   0.139094  
         H         H         0.72001   0.01882   0.14684   0.131402  
         H         H         0.46483   0.23935   0.20508   0.135489  
         N         N         0.47312   0.98905   0.25444   -0.413550           
         N         N         0.61298   0.13260   0.24375   -0.413435           
         C         C         0.41676   0.97488   0.29209   0.183371  
         C         C         0.47279   0.92925   0.27528   0.184082  
         C         C         0.66900   0.13911   0.23377   0.180237  
         C         C         0.61299   0.18486   0.25054   0.187860  
         C         C         0.38011   0.90170   0.34930   -0.193128           
         C         C         0.41500   0.87397   0.33551   -0.188407           
         C         C         0.70521   0.19559   0.23820   -0.192409           
         C         C         0.67047   0.22474   0.24686   -0.182823           
         H         H         0.33456   0.87464   0.39726   0.129665  
         H         H         0.40324   0.82076   0.36674   0.128814  
         H         H         0.75081   0.21126   0.23286   0.123485  
         H         H         0.68245   0.26907   0.24922   0.128420  
         C         C         0.39667   0.02597   0.27118   -0.075965           
         C         C         0.52136   0.91994   0.24764   -0.066102           
         C         C         0.68985   0.09871   0.21653   -0.075378           
         C         C         0.56562   0.20361   0.24602   -0.062100           
         C         C         0.33524   0.01307   0.27520   0.074572  
         C         C         0.51316   0.85754   0.25388   0.072075  
         C         C         0.75157   0.11154   0.20476   0.069490  
         C         C         0.57402   0.26570   0.24168   0.071454  
         C         C         0.30245   0.98327   0.21168   -0.127299           
         C         C         0.53993   0.80769   0.35183   -0.118734           
         C         C         0.79435   0.18012   0.08214   -0.129073           
         C         C         0.59607   0.26681   0.35691   -0.123475           
         C         C         0.30636   0.03167   0.33909   -0.124533           
         C         C         0.47973   0.84667   0.16253   -0.125701           
         C         C         0.76817   0.05226   0.31661   -0.130847           
         C         C         0.55960   0.32557   0.12081   -0.126568           
         H         H         0.32224   0.96525   0.16737   0.109262  
         H         H         0.56342   0.81345   0.42853   0.107480  
         H         H         0.78198   0.22643   0.99544   0.111047  
         H         H         0.60723   0.22107   0.45210   0.110604  
         H         H         0.32796   0.04847   0.40172   0.100792  
         H         H         0.45919   0.88504   0.08502   0.116618  
         H         H         0.73563   -0.00011  0.41495   0.111076  
         H         H         0.54599   0.32795   0.02582   0.101945  
         C         C         0.24620   0.97802   0.20146   -0.156024           
         C         C         0.53587   0.75127   0.35336   -0.182555           
         C         C         0.85153   0.18881   0.06848   -0.159714           
         C         C         0.60245   0.32485   0.35213   -0.158746           
         C         C         0.25118   0.02921   0.32393   -0.180234           
         C         C         0.47457   0.78915   0.16631   -0.153982           
         C         C         0.82497   0.06009   0.30274   -0.185613           
         C         C         0.56318   0.38170   0.11977   -0.183516           
         H         H         0.22156   0.95411   0.15381   0.121854  
         H         H         0.55633   0.71311   0.43138   0.105772  
         H         H         0.88436   0.24175   0.97302   0.113027  
         H         H         0.61973   0.32573   0.44076   0.110629  
         H         H         0.23108   0.04434   0.37485   0.107768  
         H         H         0.44976   0.78159   0.09342   0.115758  
         H         H         0.83772   0.01466   0.39194   0.116111  
         H         H         0.55170   0.42716   0.02535   0.101646  
         C         C         0.22054   0.00560   0.24763   0.204321  
         C         C         0.50383   0.74183   0.25815   0.198144  
         C         C         0.86733   0.12802   0.17554   0.205222  
         C         C         0.58377   0.38145   0.23774   0.200913  
         H         H         0.12133   0.12514   0.26441   0.133373  
         H         H         0.62055   0.60833   0.33665   0.111951  
         H         H         0.46118   0.60359   0.18300   0.119515  
         H         H         0.51254   0.44595   0.16045   0.071625  
         O         O         0.04088   0.95986   0.18585   -0.253448           
         H         H         0.89900   0.03792   0.20033   0.062211  
         C         C         0.04979   0.89564   0.30599   0.506481  
         O         O         0.06639   0.88439   0.41950   -0.425917           
         H         H         0.46733   0.51937   0.14224   0.113268  
         H         H         0.62627   0.52343   0.29752   0.118735  
         H         H         0.57844   0.68438   0.30913   0.068604  
         O         O         0.03954   0.16241   0.24128   -0.252113           
         H         H         0.17857   0.08548   0.23900   0.059807  
         C         C         0.22164   0.62506   0.36788   -0.097492           
         C         C         0.21219   0.58171   0.32619   -0.099788           
         C         C         0.16308   0.56889   0.27118   -0.091597           
         C         C         0.12366   0.59906   0.25866   -0.146015           
         C         C         0.13225   0.64227   0.30164   0.098721  
         C         C         0.18233   0.65504   0.35571   -0.134424           
         C         C         0.08991   0.67269   0.28640   -0.135102           
         C         C         0.09072   0.71211   0.32932   -0.141087           
         C         C         -0.00080  0.73369   0.25695   -0.109679           
         C         C         0.05099   0.74735   0.30420   0.110387  
         C         C         0.98434   0.83221   0.22204   -0.109558           
         C         C         0.03375   0.84326   0.27843   -0.031612           
         C         C         0.06611   0.80033   0.32172   -0.140736           
         H         H         0.25995   0.63590   0.40960   0.105875  
         H         H         0.24309   0.55847   0.33605   0.100503  
         H         H         0.15553   0.53583   0.23721   0.103792  
         H         H         0.98221   0.49686   0.32268   0.098291  
         H         H         0.10444   0.81000   0.36486   0.119244  
         C         C         0.93850   0.48008   0.30945   -0.142216           
         C         C         0.96187   0.40230   0.27663   -0.133799           
         C         C         0.05410   0.36913   0.20954   -0.107698           
         C         C         0.99516   0.32570   0.25515   0.117116  
         C         C         0.09468   0.34413   0.20479   -0.086517           
         C         C         0.07765   0.27596   0.24228   -0.104258           
         C         C         0.01920   0.23230   0.28546   -0.040439           
         H         H         0.13991   0.37816   0.17138   0.102887  
         H         H         0.10910   0.25593   0.23981   0.105556  
         H         H         0.00553   0.42945   0.27569   0.103046  
         H         H         0.05577   0.66291   0.23200   0.105124  
         H         H         0.12549   0.72263   0.38154   0.101245  
         C         C         -0.00012  0.15898   0.32844   0.527595  
         C         C         0.97852   0.25739   0.29108   -0.124657           
         C         C         0.95168   0.34854   0.26949   -0.139235           
         C         C         0.92053   0.42877   0.28672   0.096880  
         C         C         0.86346   0.40687   0.27214   -0.137276           
         C         C         0.82630   0.43532   0.27930   -0.094817           
         C         C         0.84511   0.48650   0.30112   -0.099862           
         C         C         0.90139   0.50863   0.31663   -0.086605           
         C         C         0.96642   0.77539   0.21715   -0.085210           
         O         O         0.95808   0.10440   0.42474   -0.448340           
         H         H         0.96002   0.86673   0.18581   0.107389  
         H         H         0.92700   0.76445   0.17944   0.105865  
         H         H         0.98467   0.69051   0.24983   0.104775  
         H         H         0.91606   0.54755   0.33583   0.099321  
         H         H         0.81616   0.50884   0.30619   0.101030  
         H         H         0.78254   0.41808   0.26688   0.106344  
         H         H         0.84837   0.36802   0.25290   0.106683  
         H         H         0.90807   0.31745   0.27926   0.105679  
         H         H         0.93345   0.22288   0.32449   0.108996  
         H         H         0.06833   0.42300   0.17738   0.104733  
         H         H         0.08562   0.58921   0.21481   0.103375  
         H         H         0.19062   0.68863   0.38852   0.106656  
         H         H         0.95754   0.99229   0.17766   0.137161  
         C         C         0.08489   0.09331   0.77786   -0.218028           
         C         C         0.59333   0.59844   0.78504   -0.133964           
         C         C         0.99198   0.01699   0.73745   -0.212283           
         C         C         0.50565   0.54268   0.68892   -0.137784           
         C         C         0.50097   0.58921   0.71061   -0.108569           
         C         C         0.04303   0.00824   0.73494   0.226231  
         C         C         0.59808   0.55210   0.76288   -0.112293           
         C         C         0.03375   0.10136   0.78219   0.230802  
         C         C         0.55449   0.46875   0.70500   0.059648  
         C         C         0.92984   0.06974   0.74891   0.092102  
         C         C         0.54321   0.66942   0.77678   0.059109  
         C         C         0.14953   0.04907   0.74542   0.089024  
         C         C         0.54498   0.61776   0.75949   0.053470  
         C         C         0.09213   0.04820   0.75162   -0.001707           
         C         C         0.55379   0.52278   0.71589   0.053768  
         C         C         0.98534   0.06380   0.75869   -0.004800           
         N         N         0.50129   0.69170   0.74957   -0.281404           
         N         N         0.16682   0.01295   0.72211   -0.268376           
         N         N         0.59537   0.44429   0.73729   -0.282808           
         N         N         0.91572   0.10971   0.76543   -0.269196           
         N         N         0.49019   0.11001   0.76460   -0.257121           
         N         N         0.59788   0.02559   0.71563   -0.258127           
         H         H         0.51455   0.08622   0.75917   0.269252  
         H         H         0.57302   0.04609   0.73160   0.270058  
         C         C         0.43231   0.09058   0.76547   0.182608  
         C         C         0.57771   0.96749   0.71697   0.183719  
         C         C         0.65665   0.04995   0.69838   0.183665  
         C         C         0.51030   0.16717   0.76628   0.182591  
         C         C         0.41539   0.13945   0.76502   -0.187938           
         C         C         0.62680   0.95659   0.69307   -0.184342           
         C         C         0.67432   0.00486   0.68681   -0.189753           
         C         C         0.46187   0.18322   0.77286   -0.177571           
         H         H         0.37327   0.14127   0.75939   0.135183  
         H         H         0.62550   0.91658   0.68282   0.134782  
         H         H         0.71773   0.00879   0.67493   0.130165  
         H         H         0.46278   0.22362   0.78123   0.134588  
         N         N         0.47342   0.99535   0.74926   -0.418426           
         N         N         0.61454   0.13785   0.73833   -0.414828           
         C         C         0.41716   0.98342   0.78100   0.184476  
         C         C         0.47209   0.93589   0.76674   0.186555  
         C         C         0.67092   0.15152   0.70142   0.184366  
         C         C         0.61564   0.19444   0.73150   0.187908  
         C         C         0.37931   0.91302   0.82673   -0.190090           
         C         C         0.41357   0.88358   0.81723   -0.193738           
         C         C         0.70857   0.21977   0.66487   -0.192166           
         C         C         0.67413   0.24639   0.68414   -0.191686           
         H         H         0.33327   0.88862   0.86570   0.130192  
         H         H         0.40066   0.83103   0.84489   0.128743  
         H         H         0.75452   0.24513   0.62356   0.125149  
         H         H         0.68668   0.29748   0.66247   0.125742  
         C         C         0.39706   0.03133   0.77422   -0.073860           
         C         C         0.52016   0.92410   0.74500   -0.068264           
         C         C         0.69149   0.10803   0.69329   -0.073205           
         C         C         0.56747   0.20648   0.75219   -0.064610           
         C         C         0.33589   0.01985   0.77379   0.073867  
         C         C         0.51119   0.86000   0.75603   0.072308  
         C         C         0.75276   0.11970   0.69159   0.071525  
         C         C         0.57714   0.26988   0.74420   0.072780  
         C         C         0.30728   0.00419   0.68304   -0.129613           
         C         C         0.53658   0.80900   0.85851   -0.120294           
         C         C         0.78688   0.12324   0.59072   -0.124989           
         C         C         0.60852   0.27884   0.84064   -0.123919           
         C         C         0.30353   0.02525   0.86050   -0.127571           
         C         C         0.47903   0.84915   0.66298   -0.125007           
         C         C         0.77773   0.12213   0.80314   -0.128563           
         C         C         0.55513   0.32402   0.63625   -0.121624           
         H         H         0.33024   0.99632   0.62051   0.105200  
         H         H         0.55849   0.81396   0.93794   0.107378  
         H         H         0.77039   0.12734   0.49579   0.105758  
         H         H         0.62568   0.23760   0.92558   0.115556  
         H         H         0.32209   0.03095   0.94194   0.097425  
         H         H         0.45873   0.88743   0.58321   0.113528  
         H         H         0.75258   0.12158   0.87884   0.106187  
         H         H         0.53402   0.32092   0.55386   0.107018  
         C         C         0.25119   -0.00063  0.67127   -0.162096           
         C         C         0.53380   0.75278   0.86040   -0.181114           
         C         C         0.84084   0.12073   0.61193   -0.185095           
         C         C         0.61616   0.33836   0.83195   -0.159848           
         C         C         0.24827   0.02262   0.84596   -0.183496           
         C         C         0.47475   0.79146   0.66802   -0.153665           
         C         C         0.83240   0.12233   0.82158   -0.165102           
         C         C         0.56079   0.38179   0.63119   -0.181572           
         H         H         0.22956   0.98601   0.60304   0.117459  
         H         H         0.55363   0.71422   0.94077   0.103029  
         H         H         0.86622   0.12206   0.53496   0.115668  
         H         H         0.63970   0.34435   0.90833   0.119862  
         H         H         0.22462   0.02600   0.91662   0.110195  
         H         H         0.45096   0.78398   0.59389   0.112595  
         H         H         0.85082   0.12326   0.90937   0.116546  
         H         H         0.54348   0.42271   0.54650   0.104373  
         C         C         0.22165   0.01307   0.74490   0.208605  
         C         C         0.50387   0.74424   0.76160   0.197434  
         C         C         0.86340   0.11688   0.73274   0.209846  
         C         C         0.59051   0.38924   0.73136   0.195293  
         H         H         0.12117   0.12353   0.79529   0.132847  
         H         H         0.62704   0.62006   0.82397   0.111423  
         H         H         0.46441   0.60558   0.68847   0.120208  
         H         H         0.51623   0.44683   0.67551   0.069957  
         O         O         0.04200   0.96305   0.70328   -0.255405           
         H         H         0.89961   0.03750   0.72293   0.071331  
         C         C         0.05253   0.89879   0.81401   0.507363  
         O         O         0.07091   0.88425   0.92799   -0.427650           
         H         H         0.47185   0.52104   0.65016   0.113186  
         H         H         0.63469   0.53587   0.78475   0.120450  
         H         H         0.58119   0.69085   0.80784   0.068405  
         O         O         0.03233   0.14379   0.81983   -0.262668           
         H         H         0.17936   0.08447   0.76479   0.061856  
         C         C         0.20893   0.61585   0.87133   -0.097515           
         C         C         0.20010   0.57761   0.81721   -0.107089           
         C         C         0.15424   0.57403   0.74497   -0.090855           
         C         C         0.11776   0.60879   0.72656   -0.146953           
         C         C         0.12604   0.64760   0.78031   0.102110  
         C         C         0.17247   0.65025   0.85346   -0.142061           
         C         C         0.08690   0.68317   0.75855   -0.140670           
         C         C         0.08885   0.72066   0.80708   -0.133441           
         C         C         -0.00063  0.74773   0.73379   -0.105657           
         C         C         0.05101   0.75780   0.78423   0.113541  
         C         C         0.98630   0.84278   0.71677   -0.109659           
         C         C         0.03575   0.85050   0.77537   -0.034745           
         C         C         0.06729   0.80766   0.81055   -0.140029           
         H         H         0.24452   0.61934   0.92735   0.103665  
         H         H         0.22892   0.55122   0.83063   0.100129  
         H         H         0.14718   0.54501   0.70132   0.105437  
         H         H         0.98254   0.54782   0.64471   0.099779  
         H         H         0.10574   0.81464   0.85534   0.119507  
         C         C         0.93742   0.52476   0.64801   -0.140184           
         C         C         0.95290   0.41616   0.72635   -0.135468           
         C         C         0.02669   0.32755   0.85520   -0.122062           
         C         C         0.98707   0.32550   0.76433   0.101095  
         C         C         0.06445   0.29183   0.89660   -0.081578           
         C         C         0.06257   0.25052   0.85369   -0.111947           
         C         C         0.02376   0.24790   0.76315   -0.036512           
         H         H         0.09439   0.29379   0.96717   0.104637  
         H         H         0.09074   0.22064   0.88923   0.104526  
         H         H         0.99143   0.43527   0.75774   0.104611  
         H         H         0.05425   0.67854   0.69562   0.102687  
         H         H         0.12287   0.72671   0.86563   0.101714  
         C         C         0.02536   0.21034   0.70410   0.514621  
         C         C         0.98667   0.28552   0.71771   -0.143512           
         C         C         0.94686   0.36282   0.72041   -0.140004           
         C         C         0.91469   0.45482   0.68954   0.099884  
         C         C         0.85614   0.42581   0.69419   -0.132913           
         C         C         0.82190   0.46573   0.65668   -0.093552           
         C         C         0.84542   0.53562   0.61292   -0.099902           
         C         C         0.90336   0.56509   0.60864   -0.095348           
         C         C         0.96763   0.78962   0.70096   -0.082829           
         O         O         0.02373   0.23417   0.57236   -0.434983           
         H         H         0.96241   0.87686   0.68779   0.107879  
         H         H         0.92830   0.78177   0.66052   0.102458  
         H         H         0.98457   0.70760   0.71782   0.106915  
         H         H         0.92211   0.61944   0.57432   0.100984  
         H         H         0.81851   0.56648   0.58382   0.101632  
         H         H         0.77664   0.44224   0.66237   0.105255  
         H         H         0.83735   0.37137   0.72892   0.104972  
         H         H         0.91072   0.34718   0.67747   0.108757  
         H         H         0.95711   0.28350   0.64622   0.118574  
         H         H         0.02665   0.35602   0.89708   0.104404  
         H         H         0.08241   0.60605   0.66904   0.099765  
         H         H         0.18023   0.67939   0.89692   0.106480  
         H         H         0.95601   0.98736   0.71808   0.137040 

