
##########################################################################
#               Crystallographic Information Format file
#               Produced by PyCifRW module
#
#  This is a CIF file.  CIF has been adopted by the International
#  Union of Crystallography as the standard for data archiving and
#  transmission.
#
#  For information on this file format, follow the CIF links at
#  http://www.iucr.org
##########################################################################

data_image0

_cell_length_a                          25.6921
_cell_length_b                          25.4865
_cell_length_c                          8.31905
_cell_angle_alpha                       84.8383
_cell_angle_beta                        68.0266
_cell_angle_gamma                       95.2678
_symmetry_space_group_name_H-M          'P 1'
_space_group_name_Hall                  'P 1'
loop_
  _atom_site_type_symbol
  _atom_site_label
  _atom_site_fract_x
  _atom_site_fract_y
  _atom_site_fract_z
  _atom_site_charge
         C         C         0.07722   0.09508   0.22935   -0.199004           
         C         C         0.58155   0.58687   0.14824   -0.125659           
         C         C         0.98910   0.01504   0.28774   -0.198446           
         C         C         0.48359   0.52288   0.37989   -0.130400           
         C         C         0.48397   0.57746   0.35550   -0.100647           
         C         C         0.03615   0.00375   0.31973   0.202735  
         C         C         0.58118   0.53229   0.17267   -0.104988           
         C         C         0.03045   0.10634   0.19557   0.202725  
         C         C         0.52900   0.44180   0.31296   0.055647  
         C         C         0.93340   0.07740   0.19734   0.081852  
         C         C         0.53624   0.66800   0.21602   0.058685  
         C         C         0.13277   0.03326   0.32185   0.081727  
         C         C         0.53319   0.61046   0.23926   0.058390  
         C         C         0.08166   0.04338   0.29361   -0.004010           
         C         C         0.53200   0.49931   0.28911   0.062464  
         C         C         0.98458   0.06687   0.22423   -0.004224           
         N         N         0.49400   0.69221   0.29985   -0.295859           
         N         N         0.17338   0.07221   0.28204   -0.283136           
         N         N         0.57121   0.41757   0.22896   -0.292541           
         N         N         0.89245   0.03867   0.23888   -0.284687           
         N         N         0.48147   0.11511   0.25904   -0.253459           
         N         N         0.58404   0.99496   0.26488   -0.254676           
         C         C         0.42673   0.10727   0.26538   0.183476  
         C         C         0.56811   0.94225   0.25734   0.180272  
         C         C         0.63899   0.00288   0.25666   0.184274  
         C         C         0.49741   0.16784   0.26651   0.181653  
         C         C         0.40707   0.15817   0.27882   -0.181174           
         C         C         0.61580   0.91540   0.24405   -0.191269           
         C         C         0.65886   0.95208   0.24128   -0.185983           
         C         C         0.44997   0.19480   0.27728   -0.197412           
         H         H         0.36492   0.16537   0.29266   0.132829  
         H         H         0.61701   0.87350   0.23446   0.129452  
         H         H         0.70117   0.94496   0.22593   0.134756  
         H         H         0.44857   0.23669   0.28664   0.131712  
         N         N         0.46801   0.00017   0.27101   -0.402702           
         N         N         0.59745   0.10992   0.25318   -0.404507           
         C         C         0.41745   0.00895   0.25956   0.192157  
         C         C         0.47046   0.94682   0.26140   0.189313  
         C         C         0.64791   0.10107   0.26519   0.192994  
         C         C         0.59472   0.16312   0.26523   0.192022  
         C         C         0.38808   0.96028   0.23612   -0.182756           
         C         C         0.42072   0.92149   0.23994   -0.191863           
         C         C         0.67692   0.14951   0.29162   -0.179447           
         C         C         0.64408   0.18823   0.28935   -0.193740           
         H         H         0.34920   0.95699   0.21329   0.123970  
         H         H         0.41297   0.88011   0.22536   0.118873  
         H         H         0.71562   0.15272   0.31551   0.124369  
         H         H         0.65135   0.22940   0.30701   0.119238  
         C         C         0.39587   0.05828   0.26558   -0.063322           
         C         C         0.51561   0.91906   0.26083   -0.064898           
         C         C         0.66968   0.05184   0.25753   -0.065150           
         C         C         0.54963   0.19092   0.26530   -0.066187           
         C         C         0.33739   0.05953   0.27411   0.074138  
         C         C         0.50852   0.86034   0.26298   0.080947  
         C         C         0.72813   0.05083   0.24941   0.074856  
         C         C         0.55667   0.24952   0.26490   0.081050  
         C         C         0.32559   0.09956   0.16995   -0.140841           
         C         C         0.29109   0.02245   0.38923   -0.115420           
         C         C         0.46437   0.82697   0.39877   -0.123086           
         C         C         0.54651   0.83614   0.13005   -0.126471           
         C         C         0.77423   0.08812   0.13438   -0.112998           
         C         C         0.74011   0.01092   0.35347   -0.141090           
         C         C         0.51796   0.27362   0.39643   -0.127559           
         C         C         0.60160   0.28290   0.13173   -0.121847           
         H         H         0.36051   0.12716   0.07542   0.093059  
         H         H         0.29840   0.99247   0.47720   0.108660  
         H         H         0.43409   0.84478   0.50158   0.106845  
         H         H         0.57881   0.86162   0.01946   0.096329  
         H         H         0.76675   0.11778   0.04582   0.107687  
         H         H         0.70542   0.98292   0.44711   0.094288  
         H         H         0.48494   0.24810   0.50517   0.096983  
         H         H         0.63240   0.26511   0.03020   0.106354  
         C         C         0.27097   0.10329   0.18116   -0.155999           
         C         C         0.23630   0.02452   0.39631   -0.166758           
         C         C         0.46008   0.77188   0.40561   -0.153183           
         C         C         0.54233   0.78130   0.13502   -0.171750           
         C         C         0.82910   0.08621   0.12662   -0.167410           
         C         C         0.79477   0.00762   0.34264   -0.156417           
         C         C         0.52225   0.32842   0.39229   -0.173546           
         C         C         0.60582   0.33796   0.12532   -0.151476           
         H         H         0.26240   0.13382   0.09778   0.113844  
         H         H         0.20153   0.99561   0.48715   0.123352  
         H         H         0.42697   0.74617   0.51396   0.119439  
         H         H         0.57100   0.76442   0.02565   0.109810  
         H         H         0.86383   0.11490   0.03449   0.124619  
         H         H         0.80358   0.97727   0.42600   0.113842  
         H         H         0.49299   0.34523   0.50064   0.109859  
         H         H         0.63943   0.36373   0.01854   0.120103  
         C         C         0.22532   0.06535   0.29179   0.207601  
         C         C         0.49987   0.74788   0.27667   0.195550  
         C         C         0.84030   0.04555   0.23108   0.208287  
         C         C         0.56534   0.36191   0.25242   0.196129  
         H         H         0.11247   0.12597   0.20382   0.137623  
         H         H         0.61946   0.61231   0.05712   0.105287  
         H         H         0.44715   0.59608   0.42625   0.113091  
         H         H         0.48773   0.42024   0.40260   0.062367  
         O         O         0.03448   0.95073   0.38898   -0.248551           
         H         H         0.93110   0.11815   0.14873   0.084496  
         C         C         0.07046   0.91955   0.28444   0.517657  
         O         O         0.10879   0.93657   0.14415   -0.453325           
         H         H         0.95414   0.98397   0.31165   0.137536  
         H         H         0.44569   0.49742   0.47088   0.104347  
         H         H         0.61801   0.51367   0.10202   0.115884  
         O         O         0.03377   0.15841   0.11639   -0.248505           
         H         H         0.13545   0.99269   0.37070   0.083914  
         C         C         0.00306   0.19429   0.21329   0.520113  
         O         O         0.96518   0.18221   0.35763   -0.455036           
         C         C         0.21219   0.64297   0.90599   -0.077764           
         C         C         0.20192   0.58846   0.96869   -0.083275           
         C         C         0.15807   0.56900   0.12929   -0.095840           
         C         C         0.12420   0.60381   0.22689   -0.140998           
         C         C         0.13447   0.65834   0.16450   0.149913  
         C         C         0.17884   0.67799   0.00311   -0.140914           
         N         N         0.09721   0.69010   0.27221   -0.134094           
         N         N         0.11368   0.73994   0.22882   -0.128650           
         C         C         0.02873   0.75370   0.48748   -0.128374           
         C         C         0.07648   0.77235   0.33318   0.155225  
         C         C         0.99533   0.78976   0.57868   -0.081734           
         C         C         0.00834   0.84425   0.51686   -0.090320           
         C         C         0.05573   0.86286   0.36269   -0.047457           
         C         C         0.09001   0.82683   0.27237   -0.139399           
         H         H         0.24605   0.65776   0.78010   0.107713  
         H         H         0.22796   0.56137   0.89102   0.102298  
         H         H         0.15003   0.52679   0.17849   0.106848  
         H         H         0.95898   0.77567   0.69966   0.110139  
         H         H         0.98210   0.87233   0.58763   0.119027  
         H         H         0.12665   0.84107   0.15245   0.131174  
         C         C         0.90166   0.50491   0.43682   -0.079107           
         C         C         0.92973   0.55684   0.37018   -0.080144           
         C         C         0.98450   0.56524   0.24125   -0.089382           
         C         C         0.01100   0.52170   0.17803   -0.142948           
         C         C         0.98251   0.46982   0.24130   0.153450  
         C         C         0.92758   0.46139   0.37268   -0.138449           
         N         N         0.01287   0.42926   0.16168   -0.136115           
         N         N         0.98485   0.38270   0.20741   -0.124998           
         C         C         0.06389   0.35467   0.96317   -0.131308           
         C         C         0.01564   0.34330   0.12024   0.155819  
         C         C         0.09136   0.31345   0.88543   -0.081891           
         C         C         0.07174   0.26072   0.96367   -0.091924           
         C         C         0.02353   0.24920   0.11997   -0.047541           
         C         C         0.99506   0.29050   0.19699   -0.140817           
         H         H         0.85950   0.49866   0.54007   0.109334  
         H         H         0.90903   0.59051   0.42200   0.100988  
         H         H         0.00689   0.60535   0.19096   0.103777  
         H         H         0.12787   0.32205   0.76198   0.109661  
         H         H         0.09329   0.22843   0.90420   0.119936  
         H         H         0.95798   0.28171   0.31890   0.132696  
         H         H         0.90666   0.42083   0.42171   0.117830  
         H         H         0.01945   0.71128   0.53376   0.111334  
         H         H         0.18552   0.72025   0.95622   0.115940  
         H         H         0.07808   0.39590   0.90411   0.112463  
         H         H         0.50628   0.08551   0.25130   0.273614  
         H         H         0.55911   0.02450   0.27389   0.274751  
         H         H         0.08997   0.58993   0.35281   0.109369  
         H         H         0.05381   0.52686   0.07885   0.107512  
         H         H         0.57758   0.68962   0.12705   0.063044  
         C         C         0.08017   0.09605   0.72341   -0.197718           
         C         C         0.56598   0.58625   0.59838   -0.128914           
         C         C         0.99219   0.01561   0.78305   -0.197630           
         C         C         0.50121   0.52776   0.92421   -0.129983           
         C         C         0.49508   0.58080   0.89346   -0.110539           
         C         C         0.03915   0.00475   0.81626   0.200512  
         C         C         0.57202   0.53319   0.62900   -0.114058           
         C         C         0.03347   0.10682   0.68858   0.202531  
         C         C         0.54352   0.44689   0.82823   0.071033  
         C         C         0.93675   0.07742   0.68909   0.081815  
         C         C         0.52391   0.66716   0.69455   0.070453  
         C         C         0.13575   0.03460   0.81763   0.082173  
         C         C         0.52752   0.61091   0.72970   0.057892  
         C         C         0.08465   0.04454   0.78922   -0.002973           
         C         C         0.53960   0.50308   0.79280   0.056531  
         C         C         0.98771   0.06717   0.71760   -0.004158           
         N         N         0.49823   0.69422   0.81845   -0.292220           
         N         N         0.17601   0.07377   0.78005   -0.283960           
         N         N         0.56910   0.41980   0.70424   -0.290763           
         N         N         0.89491   0.03924   0.73731   -0.285768           
         N         N         0.48359   0.11717   0.76277   -0.255716           
         N         N         0.58655   0.99695   0.76161   -0.254062           
         C         C         0.42886   0.10914   0.76903   0.184226  
         C         C         0.57066   0.94412   0.75467   0.180147  
         C         C         0.64115   0.00486   0.75659   0.185156  
         C         C         0.49923   0.16987   0.77173   0.182606  
         C         C         0.40879   0.15980   0.78450   -0.185373           
         C         C         0.61806   0.91729   0.74566   -0.196047           
         C         C         0.66081   0.95399   0.74446   -0.185133           
         C         C         0.45146   0.19652   0.78388   -0.195581           
         H         H         0.36665   0.16694   0.79807   0.133896  
         H         H         0.61962   0.87538   0.73765   0.130409  
         H         H         0.70281   0.94674   0.73216   0.135068  
         H         H         0.44969   0.23832   0.79398   0.130843  
         N         N         0.47067   0.00217   0.76881   -0.402818           
         N         N         0.59971   0.11205   0.75372   -0.403492           
         C         C         0.42008   0.01112   0.75768   0.191985  
         C         C         0.47333   0.94899   0.75626   0.189736  
         C         C         0.65045   0.10312   0.76370   0.192143  
         C         C         0.59712   0.16527   0.76585   0.188269  
         C         C         0.39097   0.96281   0.73125   -0.181451           
         C         C         0.42380   0.92405   0.73277   -0.193890           
         C         C         0.67991   0.15157   0.78801   -0.183134           
         C         C         0.64705   0.19036   0.78688   -0.194050           
         H         H         0.35217   0.95970   0.70799   0.123698  
         H         H         0.41616   0.88290   0.71567   0.117493  
         H         H         0.71897   0.15479   0.80977   0.124777  
         H         H         0.65481   0.23158   0.80312   0.121161  
         C         C         0.39831   0.06032   0.76626   -0.064866           
         C         C         0.51839   0.92100   0.75566   -0.065473           
         C         C         0.67201   0.05379   0.75682   -0.065208           
         C         C         0.55171   0.19311   0.76894   -0.065054           
         C         C         0.33996   0.06154   0.77336   0.075761  
         C         C         0.51080   0.86235   0.75814   0.076329  
         C         C         0.73052   0.05248   0.74838   0.076611  
         C         C         0.55904   0.25180   0.76605   0.074364  
         C         C         0.32824   0.10160   0.66911   -0.142265           
         C         C         0.29371   0.02428   0.88764   -0.112230           
         C         C         0.46437   0.82984   0.88962   -0.121494           
         C         C         0.55113   0.83694   0.63578   -0.128783           
         C         C         0.77688   0.08926   0.63205   -0.115857           
         C         C         0.74235   0.01269   0.85317   -0.141094           
         C         C         0.51904   0.27692   0.89043   -0.125323           
         C         C         0.60447   0.28461   0.63199   -0.122451           
         H         H         0.36305   0.12972   0.57643   0.094619  
         H         H         0.30097   0.99460   0.97661   0.107768  
         H         H         0.43274   0.84858   0.98573   0.107168  
         H         H         0.58611   0.86138   0.52961   0.098364  
         H         H         0.76956   0.11889   0.54308   0.108205  
         H         H         0.70753   0.98502   0.94762   0.093107  
         H         H         0.48496   0.25220   -0.00148  0.096814  
         H         H         0.63601   0.26620   0.53444   0.107877  
         C         C         0.27368   0.10500   0.67899   -0.157488           
         C         C         0.23897   0.02623   0.89424   -0.169451           
         C         C         0.46023   0.77467   0.90398   -0.157530           
         C         C         0.54709   0.78189   0.64836   -0.176896           
         C         C         0.83175   0.08701   0.62398   -0.165417           
         C         C         0.79701   0.00898   0.84170   -0.155738           
         C         C         0.52225   0.33192   0.87737   -0.178440           
         C         C         0.60777   0.33976   0.61714   -0.155694           
         H         H         0.26508   0.13549   0.59555   0.113687  
         H         H         0.20415   0.99746   0.98551   0.124398  
         H         H         0.42587   0.74984   0.01134   0.120938  
         H         H         0.57986   0.76373   0.55377   0.107551  
         H         H         0.86651   0.11560   0.53160   0.122753  
         H         H         0.80553   0.97868   0.92584   0.114061  
         H         H         0.48972   0.34971   0.97405   0.108235  
         H         H         0.64131   0.36479   0.50801   0.121149  
         C         C         0.22803   0.06699   0.78943   0.207849  
         C         C         0.50189   0.74952   0.78509   0.201098  
         C         C         0.84281   0.04641   0.72902   0.206080  
         C         C         0.56631   0.36459   0.73805   0.199867  
         H         H         0.11521   0.12722   0.69754   0.137294  
         H         H         0.59121   0.60941   0.47187   0.097556  
         H         H         0.46580   0.60015   0.99427   0.111501  
         H         H         0.52300   0.42900   0.96615   0.063995  
         O         O         0.03696   0.95211   0.88964   -0.248611           
         H         H         0.93556   0.11763   0.63312   0.083211  
         C         C         0.07053   0.91890   0.78730   0.519473  
         O         O         0.10872   0.93395   0.64500   -0.455026           
         H         H         0.95733   0.98435   0.80776   0.137349  
         H         H         0.47608   0.50467   0.05093   0.097649  
         H         H         0.60126   0.51383   0.52813   0.114915  
         O         O         0.03631   0.15887   0.61045   -0.252170           
         H         H         0.13871   0.99387   0.86427   0.084917  
         C         C         0.00385   0.19348   0.70934   0.522729  
         O         O         0.96574   0.17982   0.85244   -0.454213           
         C         C         0.20033   0.62679   0.47832   -0.082818           
         C         C         0.17950   0.57278   0.53894   -0.080088           
         C         C         0.12678   0.55801   0.67607   -0.091099           
         C         C         0.09521   0.59719   0.75400   -0.141024           
         C         C         0.11677   0.65117   0.69754   0.152332  
         C         C         0.16951   0.66603   0.55742   -0.136883           
         N         N         0.08194   0.68707   0.79101   -0.135646           
         N         N         0.10492   0.73550   0.75351   -0.128447           
         C         C         0.02171   0.75465   0.00609   -0.131169           
         C         C         0.06992   0.77076   0.85099   0.156218  
         C         C         0.99006   0.79249   0.09247   -0.081456           
         C         C         0.00534   0.84649   0.02505   -0.091543           
         C         C         0.05348   0.86271   0.87078   -0.047246           
         C         C         0.08610   0.82483   0.78538   -0.142322           
         H         H         0.24069   0.63797   0.36812   0.111615  
         H         H         0.20416   0.54250   0.47619   0.100743  
         H         H         0.10985   0.51624   0.72156   0.106721  
         H         H         0.95335   0.78022   0.21388   0.109259  
         H         H         0.98030   0.87599   0.09135   0.119404  
         H         H         0.12324   0.83733   0.66534   0.132574  
         C         C         0.90097   0.49775   -0.00093  -0.080036           
         C         C         0.91840   0.55014   0.91318   -0.085269           
         C         C         0.96098   0.56054   0.74559   -0.092441           
         C         C         0.98657   0.51877   0.66475   -0.139327           
         C         C         0.96959   0.46644   0.75104   0.148935  
         C         C         0.92623   0.45585   0.91918   -0.137792           
         N         N         -0.00032  0.42797   0.65706   -0.130538           
         N         N         0.98053   0.37988   0.72683   -0.132727           
         C         C         0.06021   0.35562   0.47341   -0.130180           
         C         C         0.01227   0.34232   0.63083   0.156100  
         C         C         0.08863   0.31562   0.39035   -0.079983           
         C         C         0.07032   0.26226   0.46301   -0.092470           
         C         C         0.02283   0.24891   0.62040   -0.048537           
         C         C         0.99371   0.28900   0.70370   -0.139221           
         H         H         0.86802   0.49003   0.12990   0.102970  
         H         H         0.89890   0.58261   0.97844   0.103049  
         H         H         0.97455   0.60099   0.67797   0.104902  
         H         H         0.12515   0.32568   0.26741   0.109467  
         H         H         0.09266   0.23099   0.39879   0.119524  
         H         H         0.95736   0.27887   0.82700   0.131117  
         H         H         0.91403   0.41513   0.98457   0.116249  
         H         H         0.01051   0.71254   0.05654   0.111708  
         H         H         0.18487   0.70806   0.51290   0.117199  
         H         H         0.07368   0.39730   0.41892   0.111770  
         H         H         0.50874   0.08780   0.75355   0.274080  
         H         H         0.56169   0.02649   0.76902   0.273100  
         H         H         0.05363   0.58698   0.85887   0.107890  
         H         H         0.01948   0.52528   0.53377   0.105239  
         H         H         0.54506   0.68523   0.55698   0.063971 

