
##########################################################################
#               Crystallographic Information Format file
#               Produced by PyCifRW module
#
#  This is a CIF file.  CIF has been adopted by the International
#  Union of Crystallography as the standard for data archiving and
#  transmission.
#
#  For information on this file format, follow the CIF links at
#  http://www.iucr.org
##########################################################################

data_image0

_cell_length_a                          25.5671
_cell_length_b                          25.5817
_cell_length_c                          9.79671
_cell_angle_alpha                       67.059
_cell_angle_beta                        110.62
_cell_angle_gamma                       100.828
_symmetry_space_group_name_H-M          'P 1'
_space_group_name_Hall                  'P 1'
loop_
  _atom_site_type_symbol
  _atom_site_label
  _atom_site_fract_x
  _atom_site_fract_y
  _atom_site_fract_z
  _atom_site_charge
         C         C         0.54264   0.53392   0.24840   -0.127030           
         C         C         0.03753   0.04691   0.29119   -0.237510           
         C         C         0.44355   0.46663   0.25630   -0.128097           
         C         C         0.96076   0.96684   0.18594   -0.243986           
         C         C         0.44701   0.52122   0.25724   -0.103269           
         C         C         0.01612   0.96814   0.19147   0.278169  
         C         C         0.53940   0.47907   0.24925   -0.102125           
         C         C         0.98239   0.04498   0.28786   0.278069  
         C         C         0.48415   0.38718   0.25125   0.067556  
         C         C         0.88585   -0.00029  0.23098   0.090553  
         C         C         0.50172   0.61298   0.25469   0.068439  
         C         C         0.11314   0.01304   0.25355   0.087008  
         C         C         0.49685   0.55558   0.25416   0.060087  
         C         C         0.05534   0.00935   0.24454   -0.047932           
         C         C         0.48962   0.44451   0.25339   0.065228  
         C         C         0.94309   0.00408   0.23384   -0.042907           
         N         N         0.46233   0.63432   0.26740   -0.292380           
         N         N         0.13349   0.97781   0.22021   -0.301470           
         N         N         0.52441   0.36539   0.24360   -0.287963           
         N         N         0.86822   0.03102   0.28255   -0.282540           
         N         N         0.44822   0.05237   0.25065   -0.408424           
         N         N         0.54938   0.95095   0.23623   -0.412839           
         C         C         0.39124   0.04253   0.22053   0.183794  
         C         C         0.53334   0.90012   0.21169   0.190226  
         C         C         0.60327   0.96394   0.22934   0.193328  
         C         C         0.45791   0.10994   0.21832   0.184596  
         C         C         0.36378   0.09571   0.15532   -0.195879           
         C         C         0.57642   0.88294   0.17499   -0.184563           
         C         C         0.62109   0.92091   0.19391   -0.186803           
         C         C         0.40537   0.13785   0.15477   -0.194448           
         H         H         0.31910   0.10023   0.11341   0.123542  
         H         H         0.57306   0.84725   0.13932   0.126512  
         H         H         0.66134   0.91932   0.18426   0.125235  
         H         H         0.40076   0.18316   0.11275   0.124171  
         N         N         0.43343   0.93653   0.24313   -0.258614           
         N         N         0.56523   0.06352   0.26241   -0.257631           
         C         C         0.38752   0.93804   0.28429   0.181208  
         C         C         0.44235   0.88153   0.26984   0.179879  
         C         C         0.61915   0.05687   0.27363   0.180177  
         C         C         0.56141   0.11553   0.27025   0.179244  
         C         C         0.36829   0.88032   0.34897   -0.184832           
         C         C         0.40124   0.84593   0.33887   -0.187617           
         C         C         0.65129   0.10737   0.29193   -0.186479           
         C         C         0.61685   0.14206   0.29457   -0.187361           
         H         H         0.33488   0.86684   0.40115   0.136042  
         H         H         0.39942   0.80008   0.38263   0.137113  
         H         H         0.69500   0.11638   0.29921   0.134290  
         H         H         0.62872   0.18274   0.31017   0.134071  
         C         C         0.36298   0.98784   0.25532   -0.069199           
         C         C         0.48531   0.86486   0.23784   -0.075711           
         C         C         0.63787   0.01133   0.25787   -0.062367           
         C         C         0.51157   0.13915   0.24510   -0.070357           
         C         C         0.30475   0.98270   0.25652   0.070537  
         C         C         0.48076   0.80548   0.24474   0.072653  
         C         C         0.69763   0.01547   0.26618   0.072223  
         C         C         0.51485   0.19763   0.24492   0.070380  
         C         C         0.26343   0.94648   0.19141   -0.124976           
         C         C         0.52749   0.77132   0.31971   -0.112219           
         C         C         0.71305   0.00852   0.15008   -0.121086           
         C         C         0.48381   0.21040   0.32123   -0.119705           
         C         C         0.74150   0.02853   0.38592   -0.130855           
         C         C         0.54802   0.24271   0.17014   -0.129428           
         C         C         0.28770   0.01603   0.31777   -0.119856           
         C         C         0.42842   0.77952   0.18429   -0.119609           
         H         H         0.27493   0.92083   0.14137   0.111977  
         H         H         0.56762   0.78865   0.37731   0.113427  
         H         H         0.68050   0.00101   0.05246   0.094901  
         H         H         0.45956   0.17625   0.38538   0.107586  
         H         H         0.73198   0.03341   0.47961   0.094304  
         H         H         0.57047   0.23535   0.10432   0.108656  
         H         H         0.31919   0.04154   0.37758   0.108943  
         H         H         0.39196   0.80505   0.12351   0.106846  
         C         C         0.20772   0.94535   0.18202   -0.166847           
         C         C         0.52270   0.71515   0.32857   -0.193034           
         C         C         0.76835   0.01343   0.15309   -0.186056           
         C         C         0.48488   0.26519   0.31953   -0.182172           
         C         C         0.79701   0.03525   0.38751   -0.171267           
         C         C         0.55085   0.29705   0.17292   -0.162699           
         C         C         0.23206   0.01565   0.30665   -0.177728           
         C         C         0.42290   0.72274   0.19843   -0.157999           
         H         H         0.17605   0.91837   0.12775   0.127920  
         H         H         0.55912   0.68944   0.38966   0.109824  
         H         H         0.77795   0.00940   0.05838   0.096772  
         H         H         0.46185   0.27290   0.38364   0.114450  
         H         H         0.83010   0.04640   0.47901   0.111668  
         H         H         0.57675   0.33137   0.11542   0.125350  
         H         H         0.22142   0.04120   0.35836   0.111629  
         H         H         0.38239   0.70319   0.15112   0.125257  
         C         C         0.19062   0.98081   0.23653   0.202200  
         C         C         0.47025   0.68996   0.26610   0.209884  
         C         C         0.81168   0.02635   0.27321   0.206281  
         C         C         0.51861   0.30973   0.24562   0.201036  
         H         H         0.58090   0.56079   0.24345   0.109733  
         H         H         0.41191   0.53890   0.25933   0.119093  
         H         H         0.44333   0.36408   0.25264   0.064662  
         H         H         0.06742   0.07791   0.33247   0.134310  
         O         O         0.03185   0.93073   0.14846   -0.426652           
         H         H         0.85766   0.96780   0.18716   0.077008  
         H         H         0.07352   0.93958   0.16399   0.304658  
         H         H         0.45948   0.97067   0.20671   0.282062  
         H         H         0.40483   0.44029   0.25751   0.106912  
         H         H         0.57439   0.46166   0.24559   0.119229  
         H         H         0.54019   0.63832   0.23696   0.066696  
         H         H         0.93093   0.93570   0.14510   0.131631  
         O         O         0.96731   0.08120   0.33570   -0.426954           
         H         H         0.13928   0.04727   0.29045   0.075341  
         H         H         0.92643   0.07020   0.33053   0.304688  
         H         H         0.53317   0.03309   0.25506   0.272396  
         C         C         0.54193   0.54170   0.67474   -0.133632           
         C         C         0.03444   0.05268   0.77377   -0.234403           
         C         C         0.46173   0.46274   0.78411   -0.131899           
         C         C         0.96762   0.95431   0.75219   -0.231176           
         C         C         0.46501   0.51740   0.78368   -0.106150           
         C         C         0.02246   0.95848   0.75070   0.285260  
         C         C         0.53919   0.48661   0.67717   -0.105605           
         C         C         0.97945   0.04875   0.77370   0.282412  
         C         C         0.49338   0.38764   0.73944   0.068582  
         C         C         0.88872   0.99200   0.76647   0.085184  
         C         C         0.50876   0.61570   0.72639   0.067605  
         C         C         0.11387   0.01505   0.76250   0.086983  
         C         C         0.50525   0.55795   0.72839   0.063119  
         C         C         0.05682   0.00863   0.76306   -0.043188           
         C         C         0.49881   0.44613   0.73239   0.063172  
         C         C         0.94545   0.99820   0.76446   -0.043854           
         N         N         0.47631   0.63103   0.77831   -0.277348           
         N         N         0.13565   0.97569   0.74873   -0.292609           
         N         N         0.52979   0.36532   0.71752   -0.296482           
         N         N         0.86608   0.03248   0.77302   -0.298918           
         N         N         0.44716   0.04798   0.75512   -0.408164           
         N         N         0.55059   0.94860   0.74187   -0.410435           
         C         C         0.39012   0.03877   0.71940   0.183532  
         C         C         0.53777   0.89546   0.73054   0.191478  
         C         C         0.60349   0.96401   0.72827   0.190189  
         C         C         0.45729   0.10540   0.72775   0.184959  
         C         C         0.36315   0.09233   0.65630   -0.195468           
         C         C         0.58330   0.87774   0.70395   -0.182852           
         C         C         0.62297   0.92127   0.69604   -0.187322           
         C         C         0.40517   0.13388   0.66177   -0.194628           
         H         H         0.31855   0.09756   0.61105   0.123630  
         H         H         0.58468   0.83788   0.69154   0.126514  
         H         H         0.66144   0.92434   0.66997   0.124505  
         H         H         0.40133   0.17921   0.62215   0.124757  
         N         N         0.43535   0.93206   0.75477   -0.263939           
         N         N         0.56418   0.06213   0.75916   -0.257729           
         C         C         0.38311   0.93487   0.76352   0.182502  
         C         C         0.44224   0.87843   0.76339   0.183505  
         C         C         0.61898   0.05458   0.78256   0.176724  
         C         C         0.56084   0.10869   0.79302   0.183312  
         C         C         0.35646   0.87895   0.78444   -0.193073           
         C         C         0.39148   0.84537   0.77956   -0.184277           
         C         C         0.65234   0.09736   0.84147   -0.188077           
         C         C         0.61706   0.12971   0.85001   -0.181149           
         H         H         0.31561   0.86604   0.80026   0.134631  
         H         H         0.38293   0.80167   0.78515   0.136283  
         H         H         0.69751   0.10100   0.87865   0.134916  
         H         H         0.62865   0.16405   0.89522   0.137912  
         C         C         0.36020   0.98467   0.74294   -0.074009           
         C         C         0.48887   0.86074   0.75006   -0.062174           
         C         C         0.63744   0.01173   0.75579   -0.080329           
         C         C         0.51107   0.13334   0.76219   -0.066993           
         C         C         0.30219   0.98152   0.74567   0.068752  
         C         C         0.48571   0.80120   0.75663   0.071255  
         C         C         0.69699   0.01630   0.76467   0.073586  
         C         C         0.51611   0.19240   0.75744   0.070209  
         C         C         0.25771   0.94955   0.67362   -0.126464           
         C         C         0.47301   0.75484   0.87969   -0.135526           
         C         C         0.72312   0.06889   0.69466   -0.120368           
         C         C         0.48432   0.21004   0.82247   -0.121747           
         C         C         0.73051   0.96888   0.84682   -0.110939           
         C         C         0.55217   0.23370   0.68360   -0.125878           
         C         C         0.28926   0.01220   0.82170   -0.115833           
         C         C         0.49413   0.78905   0.63779   -0.121860           
         H         H         0.26519   0.92764   0.60767   0.108038  
         H         H         0.46672   0.76248   0.97428   0.094647  
         H         H         0.69819   0.10593   0.62920   0.109026  
         H         H         0.45838   0.17848   0.88708   0.107380  
         H         H         0.71278   0.92875   0.91166   0.114717  
         H         H         0.57594   0.22156   0.62900   0.109333  
         H         H         0.32301   0.03528   0.88398   0.108841  
         H         H         0.50166   0.82405   0.53854   0.097575  
         C         C         0.20378   0.94779   0.67855   -0.170809           
         C         C         0.46864   0.69939   0.88273   -0.168990           
         C         C         0.77918   0.07386   0.70357   -0.162802           
         C         C         0.48734   0.26644   0.80991   -0.180736           
         C         C         0.78605   0.97298   0.85109   -0.193305           
         C         C         0.55593   0.28994   0.67288   -0.156998           
         C         C         0.23495   0.01258   0.82137   -0.182192           
         C         C         0.49107   0.73376   0.64183   -0.191188           
         H         H         0.16990   0.92286   0.62299   0.128576  
         H         H         0.45776   0.66399   0.97620   0.111004  
         H         H         0.79856   0.11454   0.64703   0.127839  
         H         H         0.46373   0.27781   0.86639   0.109451  
         H         H         0.81110   0.93591   0.91678   0.114213  
         H         H         0.58310   0.32175   0.61346   0.125017  
         H         H         0.22718   0.03584   0.88384   0.114332  
         H         H         0.49566   0.72603   0.54544   0.098642  
         C         C         0.19111   0.98000   0.75017   0.203593  
         C         C         0.47931   0.68765   0.76643   0.210389  
         C         C         0.81109   0.02552   0.77700   0.208048  
         C         C         0.52291   0.30775   0.73371   0.202995  
         H         H         0.57287   0.57307   0.63108   0.105418  
         H         H         0.43716   0.53050   0.82501   0.116871  
         H         H         0.45560   0.36339   0.76563   0.063365  
         H         H         0.06018   0.09103   0.78122   0.133734  
         O         O         0.04222   0.91551   0.73886   -0.429765           
         H         H         0.86438   0.95261   0.75754   0.080140  
         H         H         0.08239   0.92868   0.73767   0.300499  
         H         H         0.46583   0.96433   0.74942   0.273240  
         H         H         0.43051   0.43146   0.82634   0.105435  
         H         H         0.56729   0.47376   0.63596   0.112832  
         H         H         0.54099   0.64518   0.68063   0.067362  
         H         H         0.94170   0.91614   0.74367   0.135604  
         O         O         0.95954   0.09240   0.78191   -0.425280           
         H         H         0.13768   0.05474   0.77068   0.080330  
         H         H         0.91903   0.08029   0.77960   0.302191  
         H         H         0.53137   0.03492   0.72904   0.278235 

