
##########################################################################
#               Crystallographic Information Format file
#               Produced by PyCifRW module
#
#  This is a CIF file.  CIF has been adopted by the International
#  Union of Crystallography as the standard for data archiving and
#  transmission.
#
#  For information on this file format, follow the CIF links at
#  http://www.iucr.org
##########################################################################

data_image0

_cell_length_a                          36.9072
_cell_length_b                          36.8672
_cell_length_c                          8.12868
_cell_angle_alpha                       116.105
_cell_angle_beta                        60.3364
_cell_angle_gamma                       120.186
_symmetry_space_group_name_H-M          'P 1'
_space_group_name_Hall                  'P 1'
loop_
  _atom_site_type_symbol
  _atom_site_label
  _atom_site_fract_x
  _atom_site_fract_y
  _atom_site_fract_z
  _atom_site_charge
         C         C         0.88729   0.45990   0.22911   0.075836  
         C         C         0.53941   0.42448   0.23670   0.066227  
         C         C         0.57367   0.11153   0.24079   0.066511  
         C         C         0.11008   0.53565   0.28014   0.072785  
         C         C         0.46400   0.57942   0.26383   0.071420  
         C         C         0.41998   0.88438   0.23985   0.065877  
         N         N         0.90999   0.44755   0.26094   -0.299121           
         N         N         0.55354   0.46509   0.24513   -0.292459           
         N         N         0.53213   0.08737   0.26137   -0.286603           
         N         N         0.08716   0.54747   0.24694   -0.298371           
         N         N         0.45115   0.53881   0.25093   -0.294415           
         N         N         0.45730   0.91185   0.26772   -0.291708           
         C         C         0.95377   0.47411   0.25802   0.191847  
         C         C         0.52663   0.48161   0.24614   0.206578  
         C         C         0.51524   0.04393   0.26218   0.201448  
         C         C         0.04315   0.52105   0.25298   0.193533  
         C         C         0.47827   0.52274   0.25108   0.206924  
         C         C         0.47422   0.95512   0.26340   0.197465  
         C         C         0.97649   0.45536   0.27570   -0.137969           
         C         C         0.54627   0.52572   0.24457   -0.133229           
         C         C         0.47342   0.01786   0.23724   -0.140832           
         C         C         0.02034   0.53986   0.23632   -0.141211           
         C         C         0.45865   0.47866   0.25292   -0.134512           
         C         C         0.51561   0.98142   0.29205   -0.139910           
         C         C         0.02025   0.47805   0.27243   -0.171488           
         C         C         0.52287   0.54595   0.24684   -0.168942           
         C         C         0.45339   0.97437   0.23681   -0.164524           
         C         C         0.97657   0.51720   0.23990   -0.169621           
         C         C         0.48203   0.45847   0.25075   -0.167300           
         C         C         0.53579   0.02489   0.29157   -0.163695           
         H         H         0.95835   0.42242   0.29314   0.121208  
         H         H         0.58063   0.54323   0.24127   0.116500  
         H         H         0.45773   0.03277   0.21492   0.115151  
         H         H         0.03844   0.57284   0.21940   0.121084  
         H         H         0.42430   0.46117   0.25633   0.115306  
         H         H         0.53079   0.96674   0.31879   0.115568  
         H         H         0.03646   0.46240   0.28703   0.111830  
         H         H         0.53947   0.57982   0.24258   0.108069  
         H         H         0.42158   0.95518   0.21347   0.111886  
         H         H         0.96035   0.53291   0.22575   0.110068  
         H         H         0.46540   0.42462   0.25497   0.106924  
         H         H         0.56680   0.04458   0.32157   0.108404  
         C         C         0.17636   0.60506   0.24612   -0.103555           
         C         C         0.22034   0.62986   0.23670   -0.103208           
         C         C         0.39398   0.56906   0.24144   -0.097419           
         C         C         0.36818   0.58624   0.24103   -0.092698           
         C         C         0.42845   0.82190   0.24662   -0.115471           
         C         C         0.41137   0.77866   0.24578   -0.097214           
         C         C         0.82141   0.38991   0.25081   -0.103135           
         C         C         0.77766   0.36526   0.25646   -0.101581           
         C         C         0.60932   0.43200   0.24921   -0.096231           
         C         C         0.63388   0.41353   0.25027   -0.093885           
         C         C         0.56523   0.17680   0.26109   -0.111230           
         C         C         0.58327   0.22033   0.26475   -0.095367           
         H         H         0.15663   0.61769   0.23652   0.112237  
         H         H         0.23613   0.66278   0.22102   0.112280  
         H         H         0.38233   0.53471   0.22906   0.115562  
         H         H         0.33535   0.56584   0.22877   0.112025  
         H         H         0.46179   0.84333   0.25147   0.115515  
         H         H         0.43083   0.76497   0.25059   0.113073  
         H         H         0.84104   0.37674   0.25789   0.114633  
         H         H         0.76193   0.33184   0.26601   0.112405  
         H         H         0.62273   0.46613   0.25353   0.115456  
         H         H         0.66745   0.43267   0.25533   0.112864  
         H         H         0.53105   0.15663   0.26499   0.115218  
         H         H         0.56380   0.23550   0.27030   0.112755  
         C         C         0.35929   0.81206   0.23716   -0.133364           
         C         C         0.34196   0.76883   0.23853   -0.102963           
         C         C         0.18168   0.54561   0.27788   -0.129637           
         C         C         0.22600   0.57021   0.26545   -0.101287           
         C         C         0.45222   0.64063   0.27243   -0.137796           
         C         C         0.42650   0.65783   0.27093   -0.101753           
         C         C         0.63581   0.18287   0.24125   -0.133586           
         C         C         0.65372   0.22666   0.24746   -0.100533           
         C         C         0.81612   0.45082   0.23133   -0.128448           
         C         C         0.77201   0.42639   0.24042   -0.099393           
         C         C         0.54785   0.36228   0.23735   -0.140271           
         C         C         0.57235   0.34378   0.23919   -0.099028           
         H         H         0.33949   0.82507   0.23003   0.105809  
         H         H         0.30854   0.74756   0.23460   0.113971  
         H         H         0.16607   0.51297   0.29729   0.103117  
         H         H         0.24567   0.55751   0.27495   0.113779  
         H         H         0.48473   0.66167   0.28817   0.103186  
         H         H         0.43827   0.69218   0.28335   0.115316  
         H         H         0.65594   0.16819   0.23451   0.106562  
         H         H         0.68780   0.24677   0.24465   0.114000  
         H         H         0.83164   0.48403   0.21855   0.103418  
         H         H         0.75238   0.43970   0.23454   0.112730  
         H         H         0.51450   0.34246   0.22942   0.102841  
         H         H         0.55886   0.30965   0.23482   0.112948  
         C         C         0.34927   0.70589   0.24600   0.370847  
         C         C         0.29178   0.64016   0.24558   0.373408  
         C         C         0.35672   0.64887   0.25260   0.369096  
         C         C         0.40263   0.83931   0.24257   0.058719  
         C         C         0.15622   0.56256   0.26863   0.065304  
         C         C         0.43641   0.59611   0.25850   0.067198  
         C         C         0.36782   0.75160   0.24237   0.006435  
         C         C         0.24570   0.61285   0.24675   0.009751  
         C         C         0.38410   0.63080   0.25513   0.007104  
         N         N         0.37511   0.69110   0.25274   -0.409913           
         N         N         0.30739   0.68178   0.24265   -0.414549           
         N         N         0.31518   0.62211   0.24973   -0.410495           
         C         C         0.64756   0.29171   0.25394   0.372777  
         C         C         0.70644   0.35643   0.25070   0.371845  
         C         C         0.64191   0.34986   0.24803   0.368728  
         C         C         0.59142   0.15727   0.24732   0.055880  
         C         C         0.84144   0.43305   0.23625   0.063974  
         C         C         0.56592   0.40652   0.24151   0.069529  
         C         C         0.62782   0.24580   0.25722   0.007412  
         C         C         0.75244   0.38312   0.25110   0.006052  
         C         C         0.61572   0.36924   0.24568   0.010051  
         N         N         0.62224   0.30776   0.25130   -0.411276           
         N         N         0.68991   0.31459   0.25261   -0.415000           
         N         N         0.68387   0.37549   0.24748   -0.408736           
         C         C         0.88984   0.46077   0.73018   0.071855  
         C         C         0.53879   0.42670   0.75542   0.068846  
         C         C         0.57486   0.11675   0.77855   0.070805  
         C         C         0.11220   0.53702   0.78162   0.073025  
         C         C         0.46509   0.57813   0.74606   0.067245  
         C         C         0.42652   0.88669   0.72381   0.071038  
         N         N         0.91162   0.44844   0.76773   -0.296562           
         N         N         0.55471   0.46541   0.73536   -0.288256           
         N         N         0.53775   0.08924   0.74911   -0.287656           
         N         N         0.08944   0.54807   0.74385   -0.297543           
         N         N         0.44967   0.53910   0.76134   -0.287992           
         N         N         0.46195   0.91450   0.76734   -0.288311           
         C         C         0.95557   0.47462   0.76292   0.192226  
         C         C         0.52723   0.48189   0.74048   0.207080  
         C         C         0.52042   0.04634   0.75834   0.198748  
         C         C         0.04548   0.52150   0.75008   0.192093  
         C         C         0.47713   0.52273   0.75720   0.206011  
         C         C         0.47930   0.95771   0.76243   0.200357  
         C         C         0.98027   0.45446   0.75689   -0.139169           
         C         C         0.54429   0.52708   0.76447   -0.135578           
         C         C         0.47481   0.02293   0.78017   -0.138937           
         C         C         0.02077   0.54159   0.75586   -0.137763           
         C         C         0.46010   0.47753   0.73311   -0.134845           
         C         C         0.52481   0.98122   0.74281   -0.140017           
         C         C         0.02443   0.47714   0.74875   -0.169914           
         C         C         0.51977   0.54724   0.77500   -0.164985           
         C         C         0.45443   0.97963   0.78399   -0.163500           
         C         C         0.97667   0.51896   0.76426   -0.169259           
         C         C         0.48458   0.45737   0.72285   -0.164591           
         C         C         0.54522   0.02449   0.73835   -0.165767           
         H         H         0.96355   0.42039   0.75800   0.121989  
         H         H         0.57710   0.54566   0.77847   0.115117  
         H         H         0.45619   0.03995   0.79293   0.120143  
         H         H         0.03755   0.57560   0.75389   0.121152  
         H         H         0.42734   0.45890   0.71850   0.114270  
         H         H         0.54345   0.96427   0.73048   0.119464  
         H         H         0.04255   0.46045   0.74269   0.111860  
         H         H         0.53358   0.58229   0.79842   0.106373  
         H         H         0.41899   0.96262   0.80447   0.110319  
         H         H         0.95860   0.53565   0.76997   0.109891  
         H         H         0.47084   0.42232   0.69916   0.104350  
         H         H         0.58066   0.04144   0.71801   0.108473  
         C         C         0.17767   0.60711   0.75120   -0.105190           
         C         C         0.22167   0.63242   0.74100   -0.099896           
         C         C         0.39348   0.57030   0.74748   -0.100676           
         C         C         0.36805   0.58830   0.74983   -0.088728           
         C         C         0.43149   0.82469   0.75277   -0.115082           
         C         C         0.41353   0.78158   0.75568   -0.095401           
         C         C         0.82256   0.39216   0.76102   -0.102894           
         C         C         0.77887   0.36801   0.76532   -0.100806           
         C         C         0.61095   0.43343   0.74379   -0.098937           
         C         C         0.63612   0.41515   0.74144   -0.094742           
         C         C         0.57051   0.17816   0.74053   -0.114997           
         C         C         0.58879   0.22121   0.73620   -0.097707           
         H         H         0.15710   0.61962   0.74688   0.113967  
         H         H         0.23661   0.66567   0.73014   0.112554  
         H         H         0.38076   0.53609   0.74036   0.114702  
         H         H         0.33453   0.56867   0.74457   0.111484  
         H         H         0.46439   0.84603   0.76320   0.114681  
         H         H         0.43188   0.76797   0.76868   0.110458  
         H         H         0.84119   0.37898   0.77496   0.113525  
         H         H         0.76222   0.33498   0.78059   0.112068  
         H         H         0.62454   0.46724   0.74262   0.114871  
         H         H         0.67032   0.43410   0.73872   0.113853  
         H         H         0.53781   0.15685   0.72781   0.118205  
         H         H         0.57084   0.23484   0.72068   0.109889  
         C         C         0.36470   0.81474   0.72239   -0.131045           
         C         C         0.34630   0.77172   0.72917   -0.102364           
         C         C         0.18495   0.54736   0.77040   -0.128813           
         C         C         0.22934   0.57240   0.75587   -0.097145           
         C         C         0.45434   0.64040   0.75806   -0.142934           
         C         C         0.42865   0.65858   0.76296   -0.098967           
         C         C         0.63675   0.18821   0.77624   -0.130206           
         C         C         0.65541   0.23114   0.76845   -0.102267           
         C         C         0.81966   0.45259   0.72555   -0.127948           
         C         C         0.77556   0.42866   0.73347   -0.100239           
         C         C         0.54819   0.36463   0.75279   -0.140190           
         C         C         0.57358   0.34613   0.74792   -0.100102           
         H         H         0.34622   0.82748   0.70464   0.104908  
         H         H         0.31336   0.75051   0.71929   0.114017  
         H         H         0.17026   0.51436   0.78464   0.104237  
         H         H         0.24996   0.55968   0.75820   0.112251  
         H         H         0.48794   0.66055   0.76270   0.103897  
         H         H         0.44143   0.69279   0.77011   0.115187  
         H         H         0.65487   0.17538   0.79582   0.103662  
         H         H         0.68823   0.25230   0.77973   0.113402  
         H         H         0.83610   0.48540   0.70713   0.103245  
         H         H         0.75687   0.44201   0.72115   0.113678  
         H         H         0.51392   0.34511   0.75612   0.102486  
         H         H         0.55992   0.31233   0.74910   0.114633  
         C         C         0.35150   0.70871   0.74815   0.371146  
         C         C         0.29397   0.64301   0.74433   0.371506  
         C         C         0.35844   0.65129   0.75419   0.370788  
         C         C         0.40743   0.84191   0.73519   0.058558  
         C         C         0.15846   0.56426   0.76847   0.065268  
         C         C         0.43719   0.59608   0.75112   0.071211  
         C         C         0.37063   0.75453   0.74422   0.005471  
         C         C         0.24801   0.61549   0.74412   0.006257  
         C         C         0.38529   0.63264   0.75690   0.003576  
         N         N         0.37699   0.69363   0.75589   -0.411251           
         N         N         0.30971   0.68480   0.74306   -0.411658           
         N         N         0.31711   0.62473   0.74863   -0.407774           
         C         C         0.65070   0.29411   0.74792   0.376513  
         C         C         0.70893   0.35930   0.74970   0.371531  
         C         C         0.64451   0.35215   0.74397   0.368089  
         C         C         0.59405   0.16114   0.76279   0.056178  
         C         C         0.84378   0.43476   0.73880   0.062749  
         C         C         0.56644   0.40842   0.74979   0.067516  
         C         C         0.63142   0.24826   0.75075   0.004438  
         C         C         0.75485   0.38586   0.75133   0.006772  
         C         C         0.61781   0.37128   0.74365   0.010925  
         N         N         0.62534   0.30986   0.74362   -0.411465           
         N         N         0.69261   0.31748   0.75120   -0.412563           
         N         N         0.68627   0.37817   0.74578   -0.410001           
         H         H         0.90084   0.49117   0.19638   0.061010  
         H         H         0.59792   0.09903   0.21638   0.063485  
         H         H         0.50660   0.40100   0.22566   0.056032  
         H         H         0.49611   0.60378   0.28035   0.054557  
         H         H         0.09649   0.50492   0.31761   0.063818  
         H         H         0.39933   0.89303   0.21226   0.063308  
         H         H         0.50334   0.40558   0.78119   0.059155  
         H         H         0.90474   0.49126   0.68862   0.065200  
         H         H         0.59346   0.10871   0.82123   0.061039  
         H         H         0.40966   0.89490   0.67245   0.066224  
         H         H         0.09832   0.50699   0.82538   0.065433  
         H         H         0.50021   0.59989   0.72571   0.056959 

