
##########################################################################
#               Crystallographic Information Format file
#               Produced by PyCifRW module
#
#  This is a CIF file.  CIF has been adopted by the International
#  Union of Crystallography as the standard for data archiving and
#  transmission.
#
#  For information on this file format, follow the CIF links at
#  http://www.iucr.org
##########################################################################

data_image0

_cell_length_a                          20.5427
_cell_length_b                          20.4138
_cell_length_c                          31.1718
_cell_angle_alpha                       90.0491
_cell_angle_beta                        90.4709
_cell_angle_gamma                       90.807
_symmetry_space_group_name_H-M          'P 1'
_space_group_name_Hall                  'P 1'
loop_
  _atom_site_type_symbol
  _atom_site_label
  _atom_site_fract_x
  _atom_site_fract_y
  _atom_site_fract_z
  _atom_site_charge
         C         C         0.35761   0.69258   0.29569   0.433998  
         C         C         0.30111   0.71511   0.26953   -0.055059           
         O         O         0.37670   0.63636   0.29872   -0.391272           
         H         H         0.44770   0.85582   0.35357   0.131512  
         C         C         0.84487   0.18997   0.80206   0.436515  
         C         C         0.78889   0.21328   0.77576   -0.054379           
         O         O         0.86052   0.13304   0.80741   -0.389480           
         H         H         0.93381   0.35331   0.85640   0.131233  
         C         C         0.14760   0.31002   0.79858   0.432969  
         C         C         0.20195   0.28613   0.77164   -0.055006           
         O         O         0.13227   0.36710   0.80348   -0.391517           
         H         H         0.06258   0.14712   0.85471   0.132446  
         C         C         0.65380   0.80730   0.30173   0.433959  
         C         C         0.70841   0.78506   0.27433   -0.055500           
         O         O         0.63614   0.86371   0.30651   -0.389812           
         H         H         0.56183   0.64336   0.35590   0.131694  
         C         C         0.55542   0.10302   0.55101   0.434167  
         C         C         0.53409   0.04701   0.52325   -0.055508           
         O         O         0.61121   0.12315   0.55614   -0.389821           
         H         H         0.39071   0.18733   0.60557   0.130303  
         C         C         0.05405   0.60117   0.05045   0.433402  
         C         C         0.03111   0.54453   0.02406   -0.054524           
         O         O         0.11042   0.62035   0.05420   -0.390160           
         H         H         0.89311   0.69351   0.10479   0.130877  
         C         C         0.94619   0.90061   0.05043   0.435393  
         C         C         0.96964   0.95606   0.02350   -0.056014           
         O         O         0.88949   0.88305   0.05451   -0.389493           
         H         H         0.10740   0.80902   0.10614   0.131074  
         C         C         0.44046   0.40134   0.55231   0.431097  
         C         C         0.46443   0.45525   0.52414   -0.055178           
         O         O         0.38346   0.38641   0.55829   -0.387596           
         H         H         0.60172   0.31310   0.60965   0.131431  
         C         C         0.15114   0.69146   0.19882   0.433960  
         C         C         0.20803   0.71455   0.22514   -0.053769           
         O         O         0.13337   0.63465   0.19358   -0.389070           
         H         H         0.06457   0.85539   0.14441   0.131233  
         C         C         0.64028   0.19250   0.70418   0.434003  
         C         C         0.69673   0.21455   0.73092   -0.055847           
         O         O         0.62001   0.13621   0.70056   -0.390360           
         H         H         0.55493   0.35656   0.64726   0.130443  
         C         C         0.34792   0.30705   0.69943   0.437875  
         C         C         0.29245   0.28472   0.72635   -0.056237           
         O         O         0.36688   0.36361   0.69497   -0.388335           
         H         H         0.43504   0.14292   0.64439   0.131028  
         C         C         0.85097   0.80945   0.19896   0.431968  
         C         C         0.79705   0.78598   0.22710   -0.053600           
         O         O         0.86691   0.86650   0.19278   -0.387361           
         H         H         0.93465   0.64591   0.14322   0.132257  
         C         C         0.94781   0.10444   0.95259   0.433663  
         C         C         0.97014   0.04700   0.97769   -0.054510           
         O         O         0.89292   0.12682   0.95232   -0.394957           
         H         H         0.10641   0.19498   0.89253   0.130270  
         C         C         0.44316   0.59863   0.44828   0.433942  
         C         C         0.46540   0.54453   0.47672   -0.053625           
         O         O         0.38674   0.61411   0.44166   -0.390695           
         H         H         0.60710   0.68717   0.39511   0.131310  
         C         C         0.55977   0.90161   0.44984   0.433269  
         C         C         0.53576   0.95656   0.47664   -0.054457           
         O         O         0.61661   0.88617   0.44570   -0.388495           
         H         H         0.39901   0.81238   0.39071   0.130834  
         C         C         0.05369   0.39701   0.95206   0.434692  
         C         C         0.03125   0.45332   0.97823   -0.056315           
         O         O         0.10926   0.37662   0.95011   -0.393263           
         H         H         0.89259   0.30491   0.89471   0.131103  
         C         C         0.64343   0.30673   0.70419   0.434555  
         C         C         0.69883   0.28303   0.73067   -0.054018           
         O         O         0.62622   0.36355   0.70085   -0.392380           
         H         H         0.55571   0.14477   0.64594   0.131529  
         C         C         0.14930   0.80559   0.20206   0.434321  
         C         C         0.20712   0.78298   0.22674   -0.055478           
         O         O         0.12937   0.86164   0.20052   -0.393825           
         H         H         0.05594   0.64360   0.14529   0.131080  
         C         C         0.85259   0.69511   0.20095   0.434395  
         C         C         0.79780   0.71753   0.22800   -0.056676           
         O         O         0.87056   0.63863   0.19711   -0.391745           
         H         H         0.94457   0.85768   0.14461   0.131173  
         C         C         0.34731   0.19281   0.70116   0.435602  
         C         C         0.29138   0.21619   0.72690   -0.052518           
         O         O         0.36675   0.13663   0.69887   -0.390017           
         H         H         0.43470   0.35469   0.64426   0.131898  
         C         C         0.44604   0.89709   0.44978   0.431239  
         C         C         0.46770   0.95421   0.47627   -0.055160           
         O         O         0.39014   0.87645   0.44587   -0.390788           
         H         H         0.60937   0.80860   0.39659   0.130621  
         C         C         0.94015   0.39953   0.94819   0.431480  
         C         C         0.96320   0.45400   0.97656   -0.053941           
         O         O         0.88348   0.38319   0.94171   -0.387522           
         H         H         0.10287   0.31676   0.89180   0.130318  
         C         C         0.06037   0.09645   0.94465   0.432583  
         C         C         0.03775   0.04283   0.97377   -0.054808           
         O         O         0.11671   0.10983   0.93556   -0.387368           
         H         H         0.89610   0.18426   0.89360   0.132718  
         C         C         0.55689   0.60091   0.45082   0.433600  
         C         C         0.53346   0.54475   0.47727   -0.055393           
         O         O         0.61329   0.62023   0.44805   -0.389646           
         H         H         0.39664   0.68996   0.39164   0.132579  
         C         C         0.84978   0.30415   0.79948   0.438139  
         C         C         0.79136   0.28174   0.77493   -0.054473           
         O         O         0.87093   0.36036   0.80120   -0.392055           
         H         H         0.94139   0.14179   0.85472   0.131569  
         C         C         0.35726   0.80686   0.29702   0.433383  
         C         C         0.30053   0.78360   0.27070   -0.053132           
         O         O         0.37644   0.86350   0.30091   -0.390776           
         H         H         0.44113   0.64397   0.35420   0.134020  
         C         C         0.65409   0.69294   0.30214   0.434508  
         C         C         0.70882   0.71655   0.27483   -0.054506           
         O         O         0.63651   0.63606   0.30707   -0.390215           
         H         H         0.56788   0.85508   0.35762   0.131990  
         C         C         0.14244   0.19577   0.79668   0.431526  
         C         C         0.19984   0.21763   0.77137   -0.053485           
         O         O         0.12038   0.13992   0.79868   -0.389080           
         H         H         0.05447   0.35866   0.85386   0.130715  
         C         C         0.05938   0.89661   0.04743   0.435312  
         C         C         0.03739   0.95277   0.02069   -0.054021           
         O         O         0.11481   0.87605   0.05008   -0.393578           
         H         H         0.89693   0.81435   0.10645   0.131830  
         C         C         0.55408   0.39764   0.55041   0.432649  
         C         C         0.53250   0.45412   0.52372   -0.053623           
         O         O         0.60951   0.37711   0.55388   -0.391262           
         H         H         0.39119   0.30856   0.60542   0.132010  
         C         C         0.44200   0.09999   0.54916   0.434203  
         C         C         0.46601   0.04498   0.52247   -0.054813           
         O         O         0.38551   0.11719   0.55209   -0.392853           
         H         H         0.60134   0.19114   0.60864   0.131963  
         C         C         0.94035   0.59995   0.05002   0.431642  
         C         C         0.96306   0.54438   0.02317   -0.053620           
         O         O         0.88402   0.61713   0.05419   -0.389324           
         H         H         0.10331   0.68645   0.10727   0.131885  
         C         C         0.44451   0.74982   0.34385   0.303083  
         N         N         0.38590   0.74975   0.31494   -0.229870           
         C         C         0.05816   0.25266   0.84417   0.303189  
         N         N         0.11675   0.25318   0.81603   -0.226902           
         C         C         0.49646   0.18928   0.59677   0.304696  
         N         N         0.49780   0.12966   0.56883   -0.230548           
         C         C         0.99835   0.68974   0.09599   0.304524  
         N         N         0.99738   0.62959   0.06844   -0.229054           
         C         C         0.00199   0.81108   0.09589   0.302522  
         N         N         0.00281   0.87062   0.06788   -0.230319           
         C         C         0.49666   0.31069   0.59714   0.301808  
         N         N         0.49694   0.37068   0.56955   -0.227720           
         C         C         0.06075   0.74955   0.15487   0.303771  
         N         N         0.12073   0.74886   0.18254   -0.230143           
         C         C         0.43497   0.24896   0.65459   0.307429  
         N         N         0.37532   0.24944   0.68160   -0.242945           
         C         C         0.00150   0.18937   0.90313   0.304816  
         N         N         0.00323   0.12947   0.93065   -0.228115           
         C         C         0.50163   0.68864   0.40363   0.303589  
         N         N         0.50052   0.62864   0.43128   -0.230720           
         C         C         0.50371   0.81018   0.40398   0.305534  
         N         N         0.50338   0.87018   0.43171   -0.229454           
         C         C         0.99812   0.31060   0.90346   0.304759  
         N         N         0.99723   0.37005   0.93148   -0.228825           
         C         C         0.55520   0.25042   0.65665   0.302478  
         N         N         0.61376   0.25003   0.68535   -0.228752           
         C         C         0.94002   0.75168   0.15435   0.303128  
         N         N         0.88049   0.75224   0.18186   -0.229142           
         C         C         0.93765   0.24784   0.84526   0.308361  
         N         N         0.87714   0.24714   0.81834   -0.241717           
         C         C         0.56507   0.74939   0.34654   0.302589  
         N         N         0.62544   0.74980   0.32002   -0.229245           
         C         C         0.44460   0.81123   0.37291   -0.345220           
         C         C         0.93636   0.30814   0.87510   -0.346354           
         C         C         0.06133   0.19206   0.87372   -0.346174           
         C         C         0.56299   0.68797   0.37531   -0.345465           
         C         C         0.43500   0.18778   0.62524   -0.340090           
         C         C         0.93727   0.69107   0.12451   -0.345761           
         C         C         0.06304   0.81048   0.12527   -0.343159           
         C         C         0.55639   0.31202   0.62778   -0.342132           
         C         C         0.55629   0.18980   0.62702   -0.346126           
         C         C         0.05859   0.68818   0.12595   -0.345530           
         C         C         0.94188   0.81290   0.12537   -0.344127           
         C         C         0.43531   0.30975   0.62523   -0.346217           
         C         C         0.56570   0.80994   0.37636   -0.344352           
         C         C         0.05758   0.31412   0.87319   -0.341689           
         C         C         0.94006   0.18640   0.87408   -0.345125           
         C         C         0.44174   0.68889   0.37331   -0.345790           
         C         C         0.25346   0.82013   0.24935   -0.070419           
         H         H         0.25270   0.87338   0.25036   0.146333  
         C         C         0.74624   0.31938   0.75269   -0.069975           
         H         H         0.74811   0.37267   0.75238   0.146288  
         C         C         0.24476   0.17999   0.74930   -0.069727           
         H         H         0.24358   0.12671   0.74957   0.146240  
         C         C         0.75365   0.68015   0.25178   -0.068315           
         H         H         0.75414   0.62684   0.25224   0.145852  
         C         C         0.43020   -0.00142  0.49900   -0.067238           
         H         H         0.37724   0.99710   0.49854   0.144956  
         C         C         0.92644   0.49916   -0.00079  -0.069739           
         H         H         0.87348   0.49919   0.99816   0.146077  
         C         C         0.07405   0.99566   0.99537   -0.069773           
         H         H         0.12673   0.99245   0.99274   0.146374  
         C         C         0.56961   0.49930   0.50049   -0.070180           
         H         H         0.62257   0.49928   0.50042   0.146168  
         C         C         0.74140   0.17692   0.75367   -0.068707           
         H         H         0.73956   0.12361   0.75389   0.146296  
         C         C         0.25511   0.67799   0.24655   -0.069721           
         H         H         0.25582   0.62471   0.24550   0.145621  
         C         C         0.75239   0.82238   0.25037   -0.068573           
         H         H         0.75176   0.87566   0.24985   0.145629  
         C         C         0.24814   0.32240   0.74890   -0.068793           
         H         H         0.24946   0.37573   0.74867   0.146413  
         C         C         0.57160   0.00294   0.50017   -0.068319           
         H         H         0.62460   0.00440   0.50049   0.145729  
         C         C         0.06788   0.49886   0.00188   -0.068864           
         H         H         0.12084   0.49897   0.00290   0.145957  
         C         C         0.93339   0.00353   0.00237   -0.068747           
         H         H         0.88072   0.00645   0.00490   0.146399  
         C         C         0.42824   0.50012   0.50050   -0.069302           
         H         H         0.37525   0.50041   0.50062   0.146044  
         C         C         0.50144   0.74928   0.43280   -0.343649           
         C         C         0.00098   0.24985   0.93233   -0.346389           
         C         C         0.49432   0.24939   0.68463   -0.343787           
         C         C         0.00049   0.75045   0.18366   -0.342025           
         C         C         0.00042   0.75025   0.06691   -0.343938           
         C         C         0.49760   0.25017   0.56795   -0.344937           
         C         C         0.99694   0.25042   0.81568   -0.343361           
         C         C         0.50589   0.74969   0.31617   -0.341602           
         H         H         0.45714   0.74909   0.45229   0.125298  
         H         H         0.95838   0.24810   0.95337   0.127256  
         H         H         0.04533   0.25151   0.95223   0.125743  
         H         H         0.54412   0.74920   0.45425   0.125263  
         H         H         0.49357   0.20535   0.70486   0.126362  
         H         H         -0.00061  0.70652   0.20397   0.125667  
         H         H         0.04414   0.74971   0.04687   0.125743  
         H         H         0.54184   0.25076   0.54841   0.127331  
         H         H         0.45488   0.24994   0.54654   0.125122  
         H         H         0.95713   0.75074   0.04601   0.126595  
         H         H         0.99726   0.20684   0.79503   0.126412  
         H         H         0.50730   0.79351   0.29576   0.125317  
         H         H         0.50605   0.70597   0.29563   0.124771  
         H         H         0.99536   0.29435   0.79541   0.125718  
         H         H         0.00186   0.79404   0.20432   0.125060  
         H         H         0.49387   0.29297   0.70531   0.124909 

