
##########################################################################
#               Crystallographic Information Format file
#               Produced by PyCifRW module
#
#  This is a CIF file.  CIF has been adopted by the International
#  Union of Crystallography as the standard for data archiving and
#  transmission.
#
#  For information on this file format, follow the CIF links at
#  http://www.iucr.org
##########################################################################

data_image0

_cell_length_a                          29.8655
_cell_length_b                          29.8224
_cell_length_c                          8.18569
_cell_angle_alpha                       118.994
_cell_angle_beta                        96.5988
_cell_angle_gamma                       60.0723
_symmetry_space_group_name_H-M          'P 1'
_space_group_name_Hall                  'P 1'
loop_
  _atom_site_type_symbol
  _atom_site_label
  _atom_site_fract_x
  _atom_site_fract_y
  _atom_site_fract_z
  _atom_site_charge
         N         N         0.38164   0.42414   0.72775   -0.295968           
         C         C         0.39816   0.37619   0.73571   0.081016  
         C         C         0.41655   0.44259   0.72705   0.192930  
         C         C         0.46595   0.42309   0.78494   -0.170814           
         C         C         0.49678   0.44596   0.78663   -0.124923           
         C         C         0.48042   0.48892   0.73036   0.049388  
         C         C         0.43094   0.50825   0.67310   -0.129802           
         C         C         0.39971   0.48585   0.67229   -0.151189           
         H         H         0.43963   0.34692   0.73387   0.072242  
         H         H         0.47939   0.39210   0.83787   0.102348  
         H         H         0.36191   0.50055   0.62559   0.119990  
         H         H         0.53330   0.43213   0.84156   0.102443  
         H         H         0.41698   0.54033   0.62450   0.098059  
         N         N         0.60997   0.58345   0.76948   -0.300863           
         C         C         0.59392   0.63253   0.76955   0.082428  
         C         C         0.57514   0.56464   0.76700   0.195252  
         C         C         0.52175   0.59267   0.75033   -0.170972           
         C         C         0.49177   0.56779   0.73680   -0.119982           
         C         C         0.51315   0.51374   0.73793   0.058401  
         C         C         0.56661   0.48578   0.75310   -0.125475           
         C         C         0.59674   0.51079   0.76851   -0.144305           
         H         H         0.55249   0.66362   0.77766   0.066131  
         H         H         0.50382   0.63326   0.74188   0.110350  
         H         H         0.63788   0.48916   0.78165   0.121200  
         H         H         0.45082   0.59061   0.72348   0.105520  
         H         H         0.58501   0.44394   0.75387   0.107513  
         N         N         0.18953   0.38256   0.73985   -0.290914           
         C         C         0.22211   0.39608   0.71484   0.073770  
         C         C         0.13645   0.41562   0.73337   0.211225  
         C         C         0.10952   0.47727   0.79874   -0.171668           
         C         C         0.05644   0.50764   0.79233   -0.120542           
         C         C         0.02769   0.47825   0.72024   0.054919  
         C         C         0.05495   0.41662   0.65688   -0.124242           
         C         C         0.10781   0.38615   0.66580   -0.154885           
         H         H         0.21025   0.43089   0.67765   0.074579  
         H         H         0.13021   0.50156   0.86126   0.107288  
         H         H         0.12837   0.33872   0.61775   0.115778  
         H         H         0.03646   0.55554   0.84902   0.100485  
         H         H         0.03446   0.39202   0.59801   0.101008  
         N         N         0.80877   0.60788   0.70592   -0.295631           
         C         C         0.77420   0.59881   0.74399   0.077903  
         C         C         0.86175   0.57442   0.71414   0.199833  
         C         C         0.88542   0.51942   0.71001   -0.170023           
         C         C         0.93872   0.48890   0.71277   -0.124398           
         C         C         0.97122   0.51108   0.71705   0.057919  
         C         C         0.94732   0.56588   0.71980   -0.130725           
         C         C         0.89393   0.59676   0.71799   -0.145724           
         H         H         0.78375   0.56641   0.79003   0.066693  
         H         H         0.86196   0.50045   0.70569   0.109019  
         H         H         0.87597   0.63830   0.71527   0.119852  
         H         H         0.95537   0.44763   0.71616   0.104976  
         H         H         0.97120   0.58356   0.71632   0.107362  
         N         N         0.42164   0.19777   0.77468   -0.288040           
         C         C         0.37352   0.22636   0.75658   0.073707  
         C         C         0.44157   0.14320   0.76824   0.206689  
         C         C         0.41152   0.12452   0.81007   -0.172968           
         C         C         0.43527   0.06869   0.79483   -0.123049           
         C         C         0.48979   0.02874   0.73623   0.062081  
         C         C         0.51960   0.04833   0.69907   -0.130538           
         C         C         0.49618   0.10436   0.71602   -0.149968           
         H         H         0.34652   0.20975   0.73614   0.062461  
         H         H         0.36957   0.15470   0.86037   0.103475  
         H         H         0.51915   0.11900   0.68391   0.116018  
         H         H         0.41164   0.05620   0.83542   0.105166  
         H         H         0.56169   0.01858   0.65264   0.102260  
         N         N         0.57726   0.80615   0.71635   -0.290609           
         C         C         0.62662   0.77090   0.70200   0.075672  
         C         C         0.55947   0.85892   0.71317   0.208350  
         C         C         0.58773   0.88848   0.75491   -0.175529           
         C         C         0.56560   0.94233   0.75727   -0.123623           
         C         C         0.51424   0.96981   0.72129   0.061144  
         C         C         0.48659   0.93957   0.67700   -0.124128           
         C         C         0.50858   0.88558   0.67352   -0.147100           
         H         H         0.65705   0.77838   0.67657   0.065128  
         H         H         0.62638   0.87028   0.79330   0.106919  
         H         H         0.48696   0.86258   0.64004   0.114620  
         H         H         0.58763   0.96506   0.79511   0.101640  
         H         H         0.44754   0.95847   0.64215   0.103260  
         C         C         0.63035   0.64993   0.75440   0.062164  
         C         C         0.64584   0.71769   0.71739   0.062714  
         C         C         0.71889   0.63279   0.73474   0.053559  
         C         C         0.61140   0.70083   0.73897   -0.136820           
         C         C         0.69938   0.68330   0.71417   -0.148935           
         C         C         0.68430   0.61621   0.75369   -0.137457           
         H         H         0.69807   0.57757   0.77065   0.111046  
         H         H         0.56975   0.72846   0.74348   0.112320  
         H         H         0.72692   0.69522   0.69753   0.112946  
         C         C         0.36314   0.35606   0.74239   0.061665  
         C         C         0.35185   0.28190   0.75306   0.062988  
         C         C         0.27736   0.36479   0.73046   0.052053  
         C         C         0.38382   0.30416   0.75324   -0.127543           
         C         C         0.29892   0.31221   0.74041   -0.155990           
         C         C         0.30958   0.38646   0.73136   -0.139580           
         H         H         0.29434   0.42630   0.71990   0.113420  
         H         H         0.42523   0.27929   0.75868   0.113708  
         H         H         0.27336   0.29573   0.73811   0.111135  
         N         N         0.39144   0.41537   0.20354   -0.301217           
         C         C         0.40417   0.37421   0.24479   0.082565  
         C         C         0.42604   0.43505   0.21199   0.195996  
         C         C         0.48041   0.40428   0.21190   -0.169841           
         C         C         0.51046   0.42941   0.22780   -0.119977           
         C         C         0.48820   0.48600   0.24398   0.058217  
         C         C         0.43398   0.51606   0.24202   -0.127052           
         C         C         0.40376   0.49095   0.22408   -0.144149           
         H         H         0.44199   0.35264   0.28692   0.070141  
         H         H         0.49937   0.36033   0.19840   0.111190  
         H         H         0.36204   0.51420   0.22051   0.120332  
         H         H         0.55238   0.40426   0.22482   0.106095  
         H         H         0.41520   0.55965   0.25307   0.107485  
         N         N         0.61825   0.57725   0.25542   -0.290896           
         C         C         0.60070   0.62735   0.26062   0.080863  
         C         C         0.58365   0.55876   0.25890   0.195690  
         C         C         0.53410   0.57837   0.20200   -0.172744           
         C         C         0.50360   0.55500   0.19933   -0.126112           
         C         C         0.52067   0.51124   0.25247   0.047723  
         C         C         0.57029   0.49182   0.30881   -0.130104           
         C         C         0.60113   0.51485   0.31131   -0.149748           
         H         H         0.55861   0.65862   0.27911   0.069018  
         H         H         0.52069   0.60930   0.14864   0.103391  
         H         H         0.63883   0.50055   0.35908   0.122165  
         H         H         0.46695   0.56877   0.14493   0.102687  
         H         H         0.58427   0.45961   0.35708   0.100058  
         N         N         0.19120   0.39291   0.26435   -0.288226           
         C         C         0.22605   0.39946   0.21457   0.077802  
         C         C         0.13836   0.42623   0.25551   0.206975  
         C         C         0.11342   0.48506   0.28892   -0.176320           
         C         C         0.06039   0.51507   0.28016   -0.124835           
         C         C         0.03003   0.48780   0.23600   0.060264  
         C         C         0.05543   0.42910   0.20430   -0.125720           
         C         C         0.10798   0.39939   0.21731   -0.151445           
         H         H         0.21645   0.42930   0.15739   0.070735  
         H         H         0.13556   0.50768   0.32697   0.107150  
         H         H         0.12703   0.35442   0.19517   0.115066  
         H         H         0.04177   0.56103   0.31194   0.103352  
         H         H         0.03354   0.40627   0.16748   0.105079  
         N         N         0.81113   0.61418   0.21271   -0.295771           
         C         C         0.77911   0.59696   0.21341   0.073105  
         C         C         0.86455   0.58048   0.21637   0.195547  
         C         C         0.88678   0.53269   0.25292   -0.169099           
         C         C         0.93991   0.50316   0.25874   -0.123139           
         C         C         0.97377   0.51944   0.22751   0.055712  
         C         C         0.95128   0.56750   0.19249   -0.131178           
         C         C         0.89794   0.59752   0.18769   -0.147513           
         H         H         0.79182   0.55500   0.21044   0.065216  
         H         H         0.86205   0.52021   0.28649   0.108795  
         H         H         0.88108   0.63418   0.15848   0.114845  
         H         H         0.95498   0.46872   0.29770   0.100220  
         H         H         0.97615   0.58077   0.16442   0.100452  
         N         N         0.42089   0.19774   0.27684   -0.287094           
         C         C         0.37280   0.22794   0.26187   0.072646  
         C         C         0.43983   0.14309   0.26825   0.205325  
         C         C         0.40911   0.12503   0.30942   -0.173983           
         C         C         0.43211   0.06920   0.29387   -0.121683           
         C         C         0.48655   0.02876   0.23533   0.062506  
         C         C         0.51698   0.04755   0.19722   -0.130441           
         C         C         0.49430   0.10352   0.21473   -0.148510           
         H         H         0.34474   0.21272   0.24196   0.062690  
         H         H         0.36723   0.15575   0.35957   0.103682  
         H         H         0.51774   0.11767   0.18260   0.116648  
         H         H         0.40803   0.05717   0.33429   0.102889  
         H         H         0.55896   0.01721   0.15001   0.102457  
         N         N         0.57612   0.80631   0.21798   -0.291218           
         C         C         0.62563   0.77295   0.20882   0.074269  
         C         C         0.55736   0.85926   0.21445   0.207551  
         C         C         0.58498   0.88948   0.25605   -0.171587           
         C         C         0.56228   0.94324   0.25797   -0.123421           
         C         C         0.51086   0.97007   0.22173   0.060840  
         C         C         0.48357   0.93954   0.17910   -0.124497           
         C         C         0.50627   0.88540   0.17551   -0.148607           
         H         H         0.65507   0.78233   0.18756   0.064128  
         H         H         0.62357   0.87204   0.29545   0.107794  
         H         H         0.48501   0.86207   0.14347   0.114174  
         H         H         0.58377   0.96658   0.29643   0.099464  
         H         H         0.44427   0.95834   0.14604   0.104250  
         C         C         0.63553   0.64653   0.24393   0.064153  
         C         C         0.64680   0.71911   0.22207   0.063076  
         C         C         0.72290   0.63230   0.21954   0.052785  
         C         C         0.61421   0.69964   0.24009   -0.136859           
         C         C         0.70078   0.68580   0.21497   -0.150895           
         C         C         0.69015   0.61265   0.23155   -0.139317           
         H         H         0.70602   0.57152   0.23560   0.110550  
         H         H         0.57215   0.72679   0.24971   0.111618  
         H         H         0.72677   0.70008   0.20221   0.111030  
         C         C         0.36823   0.35424   0.24296   0.063776  
         C         C         0.35290   0.28336   0.25947   0.063409  
         C         C         0.28118   0.36614   0.22853   0.055513  
         C         C         0.38642   0.30412   0.26229   -0.130375           
         C         C         0.30032   0.31504   0.24530   -0.153020           
         C         C         0.31554   0.38454   0.22253   -0.140258           
         H         H         0.30226   0.42274   0.20360   0.111721  
         H         H         0.42711   0.27924   0.27504   0.111787  
         H         H         0.27325   0.30075   0.24686   0.110976 

