
##########################################################################
#               Crystallographic Information Format file
#               Produced by PyCifRW module
#
#  This is a CIF file.  CIF has been adopted by the International
#  Union of Crystallography as the standard for data archiving and
#  transmission.
#
#  For information on this file format, follow the CIF links at
#  http://www.iucr.org
##########################################################################

data_image0

_cell_length_a                          25.9951
_cell_length_b                          27.9986
_cell_length_c                          8.9115
_cell_angle_alpha                       96.7584
_cell_angle_beta                        100.731
_cell_angle_gamma                       89.4224
_symmetry_space_group_name_H-M          'P 1'
_space_group_name_Hall                  'P 1'
loop_
  _atom_site_type_symbol
  _atom_site_label
  _atom_site_fract_x
  _atom_site_fract_y
  _atom_site_fract_z
  _atom_site_charge
         N         N         0.74490   0.23475   0.25221   0.257547  
         O         O         0.79266   0.22309   0.29516   -0.418238           
         N         N         0.24300   0.77489   0.27929   0.265871  
         O         O         0.20731   0.79299   0.34827   -0.388194           
         N         N         0.24584   0.23184   0.36396   0.278487  
         O         O         0.20358   0.21924   0.40291   -0.417420           
         N         N         0.74408   0.77200   0.19167   0.282054  
         O         O         0.79102   0.78818   0.22665   -0.408398           
         N         N         0.49780   0.07890   0.28953   -0.255473           
         N         N         0.49099   0.92697   0.21019   -0.258962           
         H         H         0.49801   0.04212   0.27297   0.272583  
         H         H         0.49148   0.96322   0.24357   0.273194  
         C         C         0.45547   0.10683   0.31547   0.178726  
         C         C         0.44734   0.89804   0.19912   0.182893  
         C         C         0.47259   0.15595   0.32951   -0.185486           
         C         C         0.46247   0.84999   0.15305   -0.187224           
         H         H         0.44837   0.18678   0.34993   0.136546  
         H         H         0.43745   0.81848   0.13499   0.139007  
         N         N         0.91461   0.50002   0.22200   -0.403519           
         C         C         0.88238   0.53727   0.18121   0.190667  
         C         C         0.88319   0.45963   0.18586   0.189132  
         C         C         0.83023   0.51965   0.10638   -0.192073           
         C         C         0.83056   0.47125   0.11133   -0.193298           
         H         H         0.79839   0.54115   0.05508   0.129380  
         H         H         0.79882   0.44576   0.06707   0.127706  
         C         C         0.40523   0.09025   0.32410   -0.069130           
         C         C         0.39875   0.91385   0.23422   -0.072283           
         C         C         0.36453   0.12760   0.33888   0.077021  
         C         C         0.35891   0.87665   0.23874   0.082076  
         C         C         0.31835   0.12599   0.22706   -0.122776           
         C         C         0.33368   0.87883   0.36617   -0.124767           
         C         C         0.37077   0.16513   0.46070   -0.124906           
         C         C         0.34497   0.83828   0.12138   -0.134664           
         H         H         0.31312   0.09770   0.13101   0.106109  
         H         H         0.34445   0.90718   0.46084   0.105560  
         H         H         0.40542   0.16594   0.55093   0.104953  
         H         H         0.36190   0.83650   0.01866   0.092284  
         C         C         0.27964   0.16032   0.23535   -0.144997           
         C         C         0.29556   0.84536   0.37305   -0.145305           
         C         C         0.33286   0.20054   0.46936   -0.140901           
         C         C         0.30934   0.80242   0.13162   -0.136916           
         H         H         0.24442   0.15955   0.14760   0.137902  
         H         H         0.27443   0.84833   0.46733   0.113109  
         H         H         0.33703   0.22904   0.56502   0.138910  
         H         H         0.30072   0.77248   0.04184   0.119235  
         C         C         0.28780   0.19762   0.35561   0.102010  
         C         C         0.28435   0.80631   0.25861   0.103571  
         C         C         0.53314   0.89972   0.17913   0.179095  
         C         C         0.54042   0.10755   0.28620   0.179263  
         C         C         0.51398   0.85124   0.13700   -0.189477           
         C         C         0.52425   0.15639   0.31429   -0.190413           
         H         H         0.53706   0.82123   0.10056   0.137944  
         H         H         0.54910   0.18768   0.32211   0.139286  
         N         N         0.07269   0.50194   0.28706   -0.405395           
         C         C         0.10536   0.46295   0.29601   0.191575  
         C         C         0.10456   0.54071   0.28601   0.186684  
         C         C         0.15917   0.47732   0.29713   -0.189565           
         C         C         0.15894   0.52575   0.29454   -0.188327           
         H         H         0.19251   0.45380   0.30035   0.126501  
         H         H         0.19237   0.54880   0.29812   0.125976  
         C         C         0.58558   0.91537   0.19472   -0.073355           
         C         C         0.59047   0.09140   0.26519   -0.075110           
         C         C         0.62517   0.87702   0.18534   0.072926  
         C         C         0.63009   0.12897   0.26261   0.082599  
         C         C         0.66488   0.87897   0.09796   -0.126274           
         C         C         0.68007   0.13029   0.35705   -0.119767           
         C         C         0.62467   0.83762   0.27005   -0.127475           
         C         C         0.61825   0.16498   0.16419   -0.129946           
         H         H         0.66473   0.90764   0.02566   0.107117  
         H         H         0.68954   0.10438   0.43945   0.119009  
         H         H         0.59578   0.83632   0.34328   0.102400  
         H         H         0.58060   0.16371   0.08644   0.102809  
         C         C         0.70370   0.84430   0.10055   -0.140332           
         C         C         0.71685   0.16533   0.35103   -0.150975           
         C         C         0.66130   0.80125   0.26673   -0.130259           
         C         C         0.65378   0.20143   0.16060   -0.142586           
         H         H         0.73500   0.84610   0.03582   0.128256  
         H         H         0.75561   0.16613   0.42250   0.133035  
         H         H         0.66068   0.77125   0.33295   0.133536  
         H         H         0.64365   0.22868   0.08374   0.136249  
         C         C         0.70124   0.80536   0.18360   0.108577  
         C         C         0.70354   0.20129   0.25418   0.100598  
         N         N         0.24552   0.72680   0.23552   0.264948  
         O         O         0.28164   0.70971   0.16629   -0.405050           
         N         N         0.99283   0.57673   0.26406   -0.257010           
         H         H         0.99306   0.54001   0.25669   0.271266  
         C         C         0.94821   0.60437   0.25381   0.179473  
         C         C         0.96575   0.65353   0.27558   -0.188719           
         H         H         0.94087   0.68461   0.28033   0.135873  
         C         C         0.89621   0.58672   0.21117   -0.076371           
         C         C         0.85334   0.62193   0.19362   0.075632  
         C         C         0.85693   0.66298   0.11866   -0.132876           
         C         C         0.80737   0.61552   0.25245   -0.121727           
         H         H         0.88959   0.66679   0.06058   0.113506  
         H         H         0.80405   0.58437   0.31241   0.108590  
         C         C         0.81882   0.69815   0.11288   -0.133701           
         C         C         0.76744   0.64906   0.23990   -0.139179           
         H         H         0.82216   0.72958   0.05511   0.137216  
         H         H         0.73178   0.64427   0.28380   0.133603  
         C         C         0.77428   0.69107   0.17468   0.107535  
         C         C         0.03687   0.60539   0.27973   0.185239  
         C         C         0.01907   0.65405   0.28500   -0.183419           
         H         H         0.04376   0.68544   0.29396   0.136047  
         C         C         0.08864   0.58924   0.28301   -0.073589           
         C         C         0.12878   0.62592   0.27707   0.083119  
         C         C         0.13554   0.66918   0.37665   -0.122648           
         C         C         0.16210   0.61792   0.16879   -0.125211           
         H         H         0.11294   0.67513   0.46806   0.105541  
         H         H         0.15692   0.58551   0.08689   0.113997  
         C         C         0.17211   0.70414   0.36676   -0.147876           
         C         C         0.20073   0.65104   0.16254   -0.140117           
         H         H         0.17600   0.73699   0.44546   0.131741  
         H         H         0.22715   0.64443   0.08163   0.127726  
         C         C         0.20484   0.69501   0.25782   0.095183  
         N         N         0.73295   0.27931   0.21159   0.270830  
         O         O         0.68655   0.29532   0.18886   -0.383161           
         N         N         0.57184   0.00364   0.23482   -0.411095           
         C         C         0.60302   0.96388   0.22360   0.193662  
         C         C         0.60496   0.04249   0.24727   0.195683  
         C         C         0.65764   0.97819   0.23639   -0.184988           
         C         C         0.65836   0.02686   0.24271   -0.189273           
         H         H         0.69088   0.95463   0.23952   0.127091  
         H         H         0.69196   0.04950   0.24506   0.122721  
         N         N         0.73201   0.72477   0.16432   0.283504  
         O         O         0.68477   0.70949   0.13410   -0.415000           
         N         N         0.25290   0.27542   0.32323   0.277926  
         O         O         0.29448   0.28791   0.28033   -0.417184           
         N         N         0.99425   0.42558   0.26384   -0.253665           
         H         H         0.99394   0.46096   0.24556   0.272612  
         C         C         0.03894   0.39920   0.29968   0.179321  
         C         C         0.02229   0.35292   0.32736   -0.189158           
         H         H         0.04837   0.32393   0.35920   0.134707  
         C         C         0.09058   0.41510   0.30549   -0.071761           
         C         C         0.13178   0.37783   0.31697   0.074607  
         C         C         0.12606   0.33618   0.20968   -0.123054           
         C         C         0.17750   0.38355   0.43055   -0.116892           
         H         H         0.09147   0.33217   0.11912   0.108696  
         H         H         0.18148   0.41480   0.51703   0.107858  
         C         C         0.16476   0.30135   0.21382   -0.137513           
         C         C         0.21695   0.34938   0.43487   -0.142321           
         H         H         0.16127   0.26976   0.12875   0.139082  
         H         H         0.25224   0.35314   0.52285   0.135602  
         C         C         0.20999   0.30879   0.32605   0.102974  
         C         C         0.95029   0.39820   0.26238   0.180061  
         C         C         0.96847   0.35247   0.30628   -0.185338           
         H         H         0.94345   0.32323   0.31973   0.136373  
         N         N         0.41936   0.00171   0.28254   -0.404116           
         C         C         0.38958   0.04146   0.31145   0.189342  
         C         C         0.38641   0.96280   0.27153   0.189685  
         C         C         0.33675   0.02722   0.32273   -0.187292           
         C         C         0.33437   0.97847   0.29434   -0.187159           
         H         H         0.30572   0.05119   0.34742   0.125847  
         H         H         0.30054   0.95559   0.28753   0.129575  
         C         C         0.89821   0.41271   0.21841   -0.073693           
         C         C         0.85593   0.37701   0.20986   0.078873  
         C         C         0.81385   0.38993   0.28484   -0.121535           
         C         C         0.85591   0.33060   0.12929   -0.121565           
         H         H         0.81395   0.42565   0.34749   0.106505  
         H         H         0.88642   0.32097   0.06305   0.117023  
         C         C         0.77375   0.35746   0.28368   -0.139789           
         C         C         0.81667   0.29719   0.13005   -0.135975           
         H         H         0.74127   0.36685   0.34220   0.136221  
         H         H         0.81705   0.26167   0.06620   0.130577  
         C         C         0.77631   0.31096   0.20937   0.096530  
         N         N         0.75618   0.23607   0.75682   0.257763  
         O         O         0.80428   0.22629   0.80325   -0.413400           
         N         N         0.25780   0.76675   0.72713   0.255850  
         O         O         0.21104   0.78101   0.72752   -0.400418           
         N         N         0.25525   0.22810   0.88804   0.271735  
         O         O         0.22095   0.22133   0.96912   -0.408307           
         N         N         0.73572   0.75823   0.73462   0.263959  
         O         O         0.74744   0.74726   0.87157   -0.401766           
         N         N         0.51094   0.07932   0.80338   -0.255831           
         N         N         0.50152   0.92975   0.72984   -0.254840           
         H         H         0.51141   0.04254   0.79280   0.272648  
         H         H         0.50639   0.96258   0.79412   0.283591  
         C         C         0.46794   0.10761   0.82008   0.181741  
         C         C         0.45465   0.90466   0.69189   0.181653  
         C         C         0.48392   0.15628   0.81598   -0.190227           
         C         C         0.46281   0.86338   0.58870   -0.184650           
         H         H         0.45910   0.18734   0.82559   0.137421  
         H         H         0.43242   0.83819   0.52894   0.138872  
         N         N         0.92497   0.50225   0.68165   -0.405285           
         C         C         0.89492   0.54171   0.65029   0.193400  
         C         C         0.89022   0.46413   0.65942   0.188712  
         C         C         0.83991   0.52788   0.59881   -0.189102           
         C         C         0.83700   0.47967   0.60536   -0.189429           
         H         H         0.80826   0.55162   0.56096   0.124035  
         H         H         0.80243   0.45678   0.57582   0.127998  
         C         C         0.41941   0.09182   0.84576   -0.071831           
         C         C         0.40996   0.91719   0.75795   -0.076997           
         C         C         0.37791   0.12813   0.86108   0.079545  
         C         C         0.37159   0.87855   0.75565   0.080603  
         C         C         0.32878   0.12066   0.76305   -0.113984           
         C         C         0.38792   0.83059   0.76542   -0.118248           
         C         C         0.38559   0.16958   0.96883   -0.122576           
         C         C         0.31721   0.88668   0.74060   -0.110994           
         H         H         0.32286   0.08914   0.67765   0.118478  
         H         H         0.42956   0.82304   0.78561   0.109689  
         H         H         0.42273   0.17484   0.04869   0.107624  
         H         H         0.30231   0.92262   0.72706   0.117969  
         C         C         0.28866   0.15374   0.77027   -0.141056           
         C         C         0.35287   0.79241   0.75249   -0.149842           
         C         C         0.34575   0.20301   0.97776   -0.134737           
         C         C         0.28176   0.84950   0.73506   -0.135941           
         H         H         0.25114   0.14864   0.69216   0.137775  
         H         H         0.36718   0.75611   0.75701   0.139601  
         H         H         0.35074   0.23449   0.06345   0.138151  
         H         H         0.24005   0.85609   0.72317   0.136308  
         C         C         0.29793   0.19468   0.87722   0.100948  
         C         C         0.29893   0.80173   0.73678   0.106595  
         C         C         0.53993   0.90447   0.66904   0.182185  
         C         C         0.55339   0.10731   0.79348   0.179899  
         C         C         0.51495   0.86301   0.57617   -0.188823           
         C         C         0.53575   0.15619   0.80237   -0.181251           
         H         H         0.53413   0.83702   0.50599   0.132663  
         H         H         0.56003   0.18721   0.80099   0.138581  
         N         N         0.08457   0.49571   0.73435   -0.406990           
         C         C         0.11486   0.45578   0.75998   0.187436  
         C         C         0.11939   0.53267   0.73914   0.196935  
         C         C         0.17034   0.46780   0.77935   -0.192852           
         C         C         0.17323   0.51580   0.77054   -0.188120           
         H         H         0.20262   0.44329   0.80020   0.124980  
         H         H         0.20839   0.53756   0.78617   0.128363  
         C         C         0.59419   0.91591   0.70387   -0.071598           
         C         C         0.60478   0.09088   0.78911   -0.073510           
         C         C         0.62947   0.87416   0.69285   0.075139  
         C         C         0.64441   0.12817   0.78216   0.084227  
         C         C         0.67553   0.87472   0.63061   -0.114295           
         C         C         0.69302   0.13379   0.88419   -0.123520           
         C         C         0.61790   0.83207   0.75407   -0.113870           
         C         C         0.63336   0.16030   0.67025   -0.124924           
         H         H         0.68391   0.90548   0.57475   0.119205  
         H         H         0.70219   0.11113   0.97644   0.115326  
         H         H         0.58314   0.83112   0.80520   0.114635  
         H         H         0.59722   0.15546   0.58576   0.102999  
         C         C         0.70977   0.83608   0.63546   -0.140575           
         C         C         0.72884   0.16926   0.87325   -0.146599           
         C         C         0.65179   0.79330   0.76049   -0.137937           
         C         C         0.66756   0.19747   0.66230   -0.141661           
         H         H         0.74472   0.83683   0.58526   0.137423  
         H         H         0.76656   0.17296   0.95060   0.130994  
         H         H         0.64436   0.76240   0.81712   0.138959  
         H         H         0.65751   0.22176   0.57557   0.133761  
         C         C         0.69788   0.79585   0.70257   0.100754  
         C         C         0.71587   0.20169   0.76374   0.096665  
         N         N         0.26859   0.71865   0.71877   0.265794  
         O         O         0.31262   0.70212   0.69630   -0.378813           
         N         N         0.00934   0.57372   0.69790   -0.256040           
         H         H         0.00787   0.53737   0.70075   0.272270  
         C         C         0.96657   0.60382   0.68915   0.186377  
         C         C         0.98683   0.65164   0.69709   -0.182838           
         H         H         0.96388   0.68402   0.69860   0.135976  
         C         C         0.91337   0.58997   0.66623   -0.073106           
         C         C         0.87387   0.62896   0.65850   0.079165  
         C         C         0.87488   0.66648   0.56638   -0.120875           
         C         C         0.83351   0.62927   0.74461   -0.118197           
         H         H         0.90429   0.66633   0.49442   0.102987  
         H         H         0.83248   0.60147   0.81960   0.114604  
         C         C         0.83737   0.70230   0.55904   -0.138337           
         C         C         0.79544   0.66485   0.73887   -0.144696           
         H         H         0.83698   0.72987   0.48248   0.133671  
         H         H         0.76512   0.66455   0.80749   0.138754  
         C         C         0.79762   0.70125   0.64531   0.097177  
         C         C         0.05497   0.59972   0.70663   0.185347  
         C         C         0.03971   0.64895   0.70062   -0.187366           
         H         H         0.06571   0.67870   0.69962   0.134556  
         C         C         0.10636   0.58142   0.72326   -0.077576           
         C         C         0.14942   0.61641   0.72830   0.082363  
         C         C         0.15206   0.66112   0.82077   -0.128121           
         C         C         0.18896   0.60660   0.64035   -0.122540           
         H         H         0.12467   0.66843   0.89864   0.113971  
         H         H         0.18748   0.57286   0.56548   0.107799  
         C         C         0.18942   0.69594   0.81777   -0.134755           
         C         C         0.22820   0.64010   0.64158   -0.138383           
         H         H         0.18959   0.73034   0.88768   0.132777  
         H         H         0.25837   0.63267   0.57278   0.136088  
         C         C         0.22718   0.68549   0.72577   0.098439  
         N         N         0.74252   0.27935   0.70748   0.266963  
         O         O         0.69530   0.29291   0.67468   -0.385038           
         N         N         0.58461   0.00377   0.76198   -0.405964           
         C         C         0.61456   0.96294   0.75438   0.185304  
         C         C         0.61934   0.04172   0.78681   0.195873  
         C         C         0.67013   0.97564   0.78770   -0.187891           
         C         C         0.67305   0.02454   0.80127   -0.186473           
         H         H         0.70247   0.95090   0.79802   0.124027  
         H         H         0.70823   0.04635   0.81944   0.124747  
         N         N         0.75692   0.73656   0.61790   0.269438  
         O         O         0.74243   0.74787   0.48212   -0.408960           
         N         N         0.25330   0.26510   0.80546   0.277995  
         O         O         0.28713   0.27180   0.72301   -0.406908           
         N         N         0.00011   0.42408   0.71973   -0.255084           
         H         H         0.00131   0.45857   0.69360   0.275886  
         C         C         0.04343   0.39645   0.76207   0.179934  
         C         C         0.02451   0.35237   0.79992   -0.190097           
         H         H         0.04933   0.32353   0.84055   0.136774  
         C         C         0.09628   0.40938   0.77180   -0.070956           
         C         C         0.13484   0.36988   0.79299   0.074434  
         C         C         0.12933   0.32867   0.68420   -0.117614           
         C         C         0.17785   0.37305   0.91584   -0.114121           
         H         H         0.09612   0.32606   0.58931   0.105866  
         H         H         0.18127   0.40365   0.00464   0.114674  
         C         C         0.16692   0.29277   0.69116   -0.142871           
         C         C         0.21584   0.33742   0.92517   -0.143053           
         H         H         0.16450   0.26241   0.60165   0.141801  
         H         H         0.24917   0.33945   0.01991   0.133496  
         C         C         0.21025   0.29836   0.81057   0.096943  
         C         C         0.95488   0.39966   0.72637   0.179338  
         C         C         0.97080   0.35446   0.77960   -0.181962           
         H         H         0.94435   0.32774   0.80220   0.138325  
         N         N         0.43142   0.00360   0.80124   -0.408946           
         C         C         0.40597   0.04335   0.85348   0.190740  
         C         C         0.40231   0.96487   0.82232   0.189132  
         C         C         0.36153   0.02967   0.91815   -0.184476           
         C         C         0.36024   0.98074   0.90340   -0.184379           
         H         H         0.33614   0.05411   0.97219   0.115013  
         H         H         0.33468   0.95820   0.94854   0.123084  
         C         C         0.90321   0.41639   0.68835   -0.069399           
         C         C         0.86079   0.38100   0.68650   0.081013  
         C         C         0.82059   0.39260   0.77027   -0.124592           
         C         C         0.86047   0.33446   0.60610   -0.118248           
         H         H         0.82070   0.42812   0.83442   0.108180  
         H         H         0.88963   0.32551   0.53460   0.110174  
         C         C         0.78230   0.35887   0.77695   -0.141088           
         C         C         0.82314   0.29995   0.61411   -0.138202           
         H         H         0.75128   0.36766   0.84195   0.133223  
         H         H         0.82312   0.26448   0.54943   0.133653  
         C         C         0.78462   0.31242   0.70153   0.099531 

