
##########################################################################
#               Crystallographic Information Format file
#               Produced by PyCifRW module
#
#  This is a CIF file.  CIF has been adopted by the International
#  Union of Crystallography as the standard for data archiving and
#  transmission.
#
#  For information on this file format, follow the CIF links at
#  http://www.iucr.org
##########################################################################

data_image0

_cell_length_a                          37.2875
_cell_length_b                          37.4187
_cell_length_c                          8.01546
_cell_angle_alpha                       104.474
_cell_angle_beta                        105.921
_cell_angle_gamma                       119.993
_symmetry_space_group_name_H-M          'P 1'
_space_group_name_Hall                  'P 1'
loop_
  _atom_site_type_symbol
  _atom_site_label
  _atom_site_fract_x
  _atom_site_fract_y
  _atom_site_fract_z
  _atom_site_charge
         C         C         0.70238   0.37145   0.24167   0.025493  
         C         C         0.70453   0.33464   0.24681   0.031244  
         C         C         0.74382   0.33675   0.24998   -0.229253           
         C         C         0.77897   0.37451   0.24814   0.176436  
         C         C         0.77672   0.41045   0.24203   0.179704  
         C         C         0.73920   0.40958   0.23704   -0.220052           
         O         O         0.81650   0.44368   0.24060   -0.342478           
         B         B         0.84282   0.42683   0.24548   0.582539  
         O         O         0.81995   0.38384   0.24928   -0.338215           
         C         C         0.88992   0.45117   0.24507   -0.301247           
         S         S         0.91739   0.50491   0.24267   0.132361  
         C         C         0.96475   0.50597   0.24425   0.000342  
         C         C         0.95937   0.46556   0.25044   0.071326  
         C         C         0.91622   0.43518   0.24918   -0.112247           
         C         C         0.00354   0.54032   0.24015   -0.188545           
         C         C         0.62587   0.33172   0.24939   0.026237  
         C         C         0.66298   0.37029   0.24592   0.030690  
         C         C         0.66173   0.40784   0.24975   -0.233927           
         C         C         0.62435   0.40574   0.25634   0.175387  
         C         C         0.58795   0.36788   0.25896   0.171697  
         C         C         0.58788   0.33106   0.25662   -0.228675           
         O         O         0.55532   0.37512   0.26734   -0.337847           
         B         B         0.57288   0.41832   0.26821   0.601341  
         O         O         0.61566   0.43784   0.26178   -0.336078           
         C         C         0.54892   0.44138   0.27129   -0.314291           
         S         S         0.49448   0.41508   0.26796   0.147334  
         C         C         0.49345   0.46091   0.26376   -0.002841           
         C         C         0.53479   0.49571   0.26373   0.064058  
         C         C         0.56530   0.48318   0.26697   -0.131296           
         C         C         0.45834   0.46521   0.26110   -0.181091           
         C         C         0.66640   0.29499   0.24800   0.029729  
         C         C         0.62728   0.29339   0.24781   0.029579  
         C         C         0.58981   0.25440   0.24565   -0.223808           
         C         C         0.59263   0.21927   0.24662   0.177774  
         C         C         0.63134   0.22121   0.25032   0.175016  
         C         C         0.66797   0.25791   0.24935   -0.227441           
         O         O         0.62568   0.18214   0.25628   -0.342851           
         B         B         0.58214   0.15612   0.25377   0.591622  
         O         O         0.56109   0.17852   0.24680   -0.338842           
         C         C         0.55981   0.10950   0.25677   -0.296281           
         S         S         0.58584   0.08159   0.25150   0.149757  
         C         C         0.53905   0.03377   0.24448   -0.006819           
         C         C         0.50424   0.04005   0.24927   0.069754  
         C         C         0.51737   0.08352   0.25607   -0.133225           
         C         C         0.53409   0.99395   0.23668   -0.182630           
         C         C         0.29621   0.62974   0.26023   0.026793  
         C         C         0.29369   0.66604   0.24943   0.030695  
         C         C         0.25399   0.66369   0.24201   -0.230413           
         C         C         0.21908   0.62633   0.24734   0.175397  
         C         C         0.22160   0.59075   0.25714   0.180798  
         C         C         0.25930   0.59171   0.26478   -0.219351           
         O         O         0.18178   0.55745   0.25803   -0.343760           
         B         B         0.15498   0.57383   0.24866   0.585265  
         O         O         0.17781   0.61675   0.24402   -0.339802           
         C         C         0.10771   0.54935   0.24793   -0.298017           
         S         S         0.08099   0.49624   0.25583   0.130908  
         C         C         0.03331   0.49472   0.25303   0.003134  
         C         C         0.03832   0.53478   0.24419   0.070630  
         C         C         0.08098   0.56486   0.24162   -0.111459           
         C         C         0.99443   0.46029   0.25657   -0.188030           
         C         C         0.37286   0.66903   0.25364   0.027675  
         C         C         0.33595   0.63104   0.26055   0.031292  
         C         C         0.33767   0.59414   0.26457   -0.235182           
         C         C         0.37515   0.59606   0.26091   0.172130  
         C         C         0.41124   0.63314   0.25365   0.174019  
         C         C         0.41096   0.66946   0.24947   -0.231171           
         O         O         0.44381   0.62559   0.24777   -0.336912           
         B         B         0.42648   0.58299   0.25290   0.602079  
         O         O         0.38400   0.56426   0.26158   -0.335290           
         C         C         0.45020   0.55964   0.25117   -0.314833           
         S         S         0.50454   0.58575   0.25362   0.149159  
         C         C         0.50558   0.53997   0.25790   -0.004448           
         C         C         0.46423   0.50518   0.25789   0.063114  
         C         C         0.43374   0.51774   0.25483   -0.131082           
         C         C         0.54056   0.53553   0.25936   -0.176384           
         C         C         0.33178   0.70525   0.24569   0.030239  
         C         C         0.37109   0.70685   0.24856   0.029018  
         C         C         0.40844   0.74541   0.24802   -0.222202           
         C         C         0.40522   0.78004   0.24107   0.178348  
         C         C         0.36635   0.77810   0.23473   0.173148  
         C         C         0.33001   0.74197   0.23955   -0.227720           
         O         O         0.37185   0.81681   0.22466   -0.342985           
         B         B         0.41556   0.84274   0.22810   0.591581  
         O         O         0.43672   0.82047   0.23876   -0.337464           
         C         C         0.43799   0.88938   0.22448   -0.294482           
         S         S         0.41162   0.91704   0.22787   0.146613  
         C         C         0.45859   0.96526   0.23730   -0.004885           
         C         C         0.49355   0.95914   0.23354   0.067047  
         C         C         0.48068   0.91581   0.22763   -0.132096           
         C         C         0.46353   0.00510   0.24494   -0.185213           
         H         H         0.74691   0.30968   0.25453   0.135706  
         H         H         0.73822   0.43751   0.22778   0.135149  
         H         H         0.90478   0.40249   0.25279   0.135852  
         H         H         0.00697   0.57032   0.23158   0.128205  
         H         H         0.68908   0.43762   0.24652   0.134958  
         H         H         0.55977   0.30298   0.26467   0.134327  
         H         H         0.59809   0.50393   0.26318   0.135455  
         H         H         0.42751   0.43897   0.26387   0.132822  
         H         H         0.55965   0.25200   0.24607   0.134664  
         H         H         0.69704   0.25781   0.25005   0.137405  
         H         H         0.49633   0.09557   0.26062   0.134089  
         H         H         0.56036   0.98926   0.23172   0.129878  
         H         H         0.25027   0.69004   0.23025   0.136702  
         H         H         0.26017   0.56380   0.27500   0.136620  
         H         H         0.09173   0.59692   0.23316   0.134205  
         H         H         0.99124   0.43045   0.26636   0.129047  
         H         H         0.31057   0.56488   0.27121   0.134978  
         H         H         0.43889   0.69690   0.23824   0.134874  
         H         H         0.40089   0.49681   0.25789   0.134656  
         H         H         0.57112   0.56144   0.25400   0.130887  
         H         H         0.43890   0.74794   0.25120   0.135617  
         H         H         0.30109   0.74232   0.23919   0.137046  
         H         H         0.50204   0.90408   0.22513   0.134513  
         H         H         0.43702   0.00956   0.24787   0.128641  
         C         C         0.70409   0.37018   0.74159   0.028619  
         C         C         0.70542   0.33285   0.74539   0.028522  
         C         C         0.74444   0.33431   0.74902   -0.227115           
         C         C         0.77998   0.37196   0.74781   0.173547  
         C         C         0.77874   0.40859   0.74479   0.178764  
         C         C         0.74172   0.40852   0.74148   -0.219623           
         O         O         0.81904   0.44177   0.74618   -0.343877           
         B         B         0.84470   0.42414   0.74956   0.584088  
         O         O         0.82080   0.38075   0.74929   -0.336407           
         C         C         0.89188   0.44815   0.74957   -0.298876           
         S         S         0.91820   0.50124   0.74157   0.132321  
         C         C         0.96585   0.50297   0.74337   0.002369  
         C         C         0.96131   0.46308   0.75211   0.069858  
         C         C         0.91876   0.43280   0.75541   -0.110636           
         C         C         0.00432   0.53763   0.73880   -0.185748           
         C         C         0.62767   0.33166   0.75000   0.030693  
         C         C         0.66484   0.36957   0.74414   0.030545  
         C         C         0.66373   0.40699   0.74400   -0.234818           
         C         C         0.62689   0.40579   0.75241   0.172182  
         C         C         0.59061   0.36883   0.75932   0.175356  
         C         C         0.59021   0.33192   0.75885   -0.236145           
         O         O         0.55855   0.37698   0.76823   -0.337269           
         B         B         0.57649   0.41992   0.76554   0.602571  
         O         O         0.61881   0.43825   0.75589   -0.336397           
         C         C         0.55339   0.44387   0.76979   -0.317594           
         S         S         0.49963   0.41824   0.77229   0.149390  
         C         C         0.49835   0.46380   0.76668   -0.004862           
         C         C         0.53915   0.49820   0.76260   0.063177  
         C         C         0.56951   0.48550   0.76362   -0.127831           
         C         C         0.46352   0.46833   0.76696   -0.177270           
         C         C         0.66684   0.29353   0.74624   0.028993  
         C         C         0.62830   0.29291   0.74807   0.030114  
         C         C         0.59049   0.25437   0.74655   -0.226610           
         C         C         0.59258   0.21882   0.74713   0.179899  
         C         C         0.63068   0.21977   0.74859   0.174505  
         C         C         0.66751   0.25592   0.74623   -0.228386           
         O         O         0.62425   0.18040   0.75391   -0.342290           
         B         B         0.58094   0.15531   0.75415   0.593686  
         O         O         0.56071   0.17847   0.74880   -0.339769           
         C         C         0.55831   0.10878   0.75755   -0.297813           
         S         S         0.58485   0.08136   0.75416   0.150304  
         C         C         0.53800   0.03317   0.74480   -0.008468           
         C         C         0.50290   0.03906   0.74811   0.069108  
         C         C         0.51564   0.08238   0.75446   -0.130970           
         C         C         0.53334   0.99350   0.73771   -0.185640           
         C         C         0.29825   0.62954   0.76304   0.027973  
         C         C         0.29542   0.66565   0.75198   0.030740  
         C         C         0.25572   0.66312   0.74481   -0.231354           
         C         C         0.22091   0.62566   0.74956   0.176901  
         C         C         0.22369   0.59031   0.76093   0.182304  
         C         C         0.26160   0.59158   0.76927   -0.222983           
         O         O         0.18388   0.55713   0.76252   -0.343586           
         B         B         0.15697   0.57341   0.75206   0.584493  
         O         O         0.17968   0.61611   0.74595   -0.338688           
         C         C         0.10960   0.54863   0.75044   -0.300955           
         S         S         0.08304   0.49508   0.75493   0.131492  
         C         C         0.03510   0.49299   0.75213   0.001619  
         C         C         0.03968   0.53295   0.74428   0.068894  
         C         C         0.08251   0.56372   0.74422   -0.112098           
         C         C         0.99652   0.45822   0.75600   -0.188705           
         C         C         0.37496   0.66949   0.75626   0.026919  
         C         C         0.33819   0.63124   0.76278   0.031386  
         C         C         0.34034   0.59453   0.76616   -0.235439           
         C         C         0.37808   0.59694   0.76257   0.174871  
         C         C         0.41415   0.63444   0.75693   0.173226  
         C         C         0.41346   0.67058   0.75326   -0.231126           
         O         O         0.44713   0.62748   0.75167   -0.338648           
         B         B         0.43006   0.58477   0.75529   0.604458  
         O         O         0.38735   0.56539   0.76235   -0.336987           
         C         C         0.45423   0.56188   0.75343   -0.315407           
         S         S         0.50814   0.58783   0.75178   0.146443  
         C         C         0.50964   0.54232   0.75731   -0.002299           
         C         C         0.46886   0.50787   0.76131   0.063297  
         C         C         0.43836   0.52036   0.75990   -0.131119           
         C         C         0.54453   0.53784   0.75737   -0.180739           
         C         C         0.33322   0.70501   0.74819   0.029319  
         C         C         0.37261   0.70697   0.75035   0.029650  
         C         C         0.40948   0.74570   0.74876   -0.224703           
         C         C         0.40587   0.78015   0.74255   0.178121  
         C         C         0.36696   0.77790   0.73779   0.173759  
         C         C         0.33094   0.74147   0.74228   -0.228021           
         O         O         0.37181   0.81636   0.72743   -0.343338           
         B         B         0.41520   0.84236   0.72849   0.590232  
         O         O         0.43682   0.82052   0.73842   -0.337373           
         C         C         0.43705   0.88867   0.72296   -0.293135           
         S         S         0.41042   0.91600   0.72502   0.148292  
         C         C         0.45745   0.96424   0.73524   -0.006943           
         C         C         0.49261   0.95839   0.73245   0.069545  
         C         C         0.47980   0.91511   0.72676   -0.135126           
         C         C         0.46233   0.00405   0.74381   -0.183237           
         H         H         0.74713   0.30701   0.75406   0.136477  
         H         H         0.74201   0.43745   0.73831   0.136644  
         H         H         0.90831   0.40080   0.76429   0.135246  
         H         H         0.00703   0.56727   0.72926   0.127968  
         H         H         0.69055   0.43585   0.73469   0.134718  
         H         H         0.56215   0.30445   0.76936   0.136272  
         H         H         0.60185   0.50597   0.75635   0.134350  
         H         H         0.43326   0.44252   0.77388   0.130340  
         H         H         0.56062   0.25256   0.74757   0.136694  
         H         H         0.69608   0.25509   0.74501   0.137948  
         H         H         0.49406   0.09386   0.75609   0.134175  
         H         H         0.56014   0.98941   0.73608   0.131423  
         H         H         0.25212   0.68962   0.73468   0.136251  
         H         H         0.26298   0.56411   0.78248   0.136246  
         H         H         0.09303   0.59601   0.73820   0.136011  
         H         H         0.99368   0.42845   0.76469   0.127997  
         H         H         0.31321   0.56508   0.77187   0.135525  
         H         H         0.44136   0.69838   0.74324   0.135217  
         H         H         0.40600   0.49978   0.76681   0.134588  
         H         H         0.57482   0.56371   0.75068   0.132448  
         H         H         0.43992   0.74853   0.74989   0.136182  
         H         H         0.30181   0.74139   0.74152   0.136350  
         H         H         0.50128   0.90350   0.72593   0.135241  
         H         H         0.43601   0.00859   0.74905   0.127930 

