
##########################################################################
#               Crystallographic Information Format file
#               Produced by PyCifRW module
#
#  This is a CIF file.  CIF has been adopted by the International
#  Union of Crystallography as the standard for data archiving and
#  transmission.
#
#  For information on this file format, follow the CIF links at
#  http://www.iucr.org
##########################################################################

data_image0

_cell_length_a                          28.4884
_cell_length_b                          28.3552
_cell_length_c                          7.97944
_cell_angle_alpha                       103.284
_cell_angle_beta                        105.236
_cell_angle_gamma                       120.499
_symmetry_space_group_name_H-M          'P 1'
_space_group_name_Hall                  'P 1'
loop_
  _atom_site_type_symbol
  _atom_site_label
  _atom_site_fract_x
  _atom_site_fract_y
  _atom_site_fract_z
  _atom_site_charge
         C         C         0.50125   0.45672   0.74968   0.582071  
         N         N         0.54854   0.50036   0.73509   -0.516087           
         C         C         0.54523   0.54474   0.72552   0.575516  
         N         N         0.50036   0.54908   0.72786   -0.517970           
         C         C         0.45683   0.50311   0.74346   0.585358  
         N         N         0.45443   0.45532   0.75612   -0.524701           
         O         O         0.50653   0.41263   0.75855   -0.218076           
         O         O         0.58865   0.59198   0.70854   -0.228108           
         O         O         0.40812   0.49927   0.74934   -0.219424           
         C         C         0.46231   0.35737   0.75184   0.254337  
         C         C         0.64322   0.60348   0.71320   0.253424  
         C         C         0.39433   0.53969   0.73717   0.257194  
         C         C         0.42915   0.59365   0.72212   -0.196029           
         C         C         0.40724   0.62766   0.71195   -0.125902           
         C         C         0.35241   0.61006   0.72046   0.188470  
         C         C         0.31788   0.55494   0.73343   -0.152460           
         C         C         0.33867   0.52017   0.74158   -0.185754           
         C         C         0.66587   0.57156   0.75195   -0.186718           
         C         C         0.72298   0.59236   0.76118   -0.119540           
         C         C         0.75800   0.64367   0.73189   0.180795  
         C         C         0.73374   0.67484   0.69203   -0.157780           
         C         C         0.67697   0.65484   0.68301   -0.191645           
         C         C         0.41425   0.34485   0.79635   -0.196877           
         C         C         0.37440   0.28675   0.78000   -0.123047           
         C         C         0.38213   0.24139   0.72499   0.188372  
         C         C         0.43148   0.25556   0.68303   -0.159233           
         C         C         0.47105   0.31297   0.69582   -0.182966           
         H         H         0.47164   0.60813   0.71617   0.133899  
         H         H         0.43292   0.66940   0.69698   0.118767  
         H         H         0.27472   0.53902   0.73771   0.111412  
         H         H         0.31272   0.47784   0.75308   0.129811  
         H         H         0.63998   0.53218   0.77646   0.136158  
         H         H         0.74220   0.56896   0.79394   0.123452  
         H         H         0.75861   0.71415   0.66470   0.108787  
         H         H         0.65755   0.67813   0.65092   0.133097  
         H         H         0.40740   0.37907   0.83912   0.131294  
         H         H         0.33664   0.27572   0.81434   0.121677  
         H         H         0.43774   0.22096   0.63453   0.106394  
         H         H         0.50822   0.32410   0.65831   0.129737  
         N         N         0.33698   0.64954   0.71189   -0.301800           
         C         C         0.29482   0.64582   0.75445   0.067920  
         H         H         0.26774   0.61163   0.79941   0.067470  
         N         N         0.81422   0.65833   0.74539   -0.302568           
         C         C         0.84991   0.70206   0.71084   0.072507  
         H         H         0.83924   0.73114   0.66907   0.062886  
         N         N         0.33937   0.18542   0.71701   -0.286219           
         C         C         0.35207   0.14858   0.73460   0.066702  
         H         H         0.39673   0.15894   0.75692   0.058393  
         C         C         0.20729   0.82309   0.73603   0.585100  
         N         N         0.21882   0.87529   0.73297   -0.523877           
         C         C         0.17656   0.88189   0.74396   0.585456  
         N         N         0.12598   0.84242   0.75551   -0.517944           
         C         C         0.11996   0.79267   0.75277   0.580419  
         N         N         0.15921   0.77999   0.74449   -0.519134           
         O         O         0.25163   0.81852   0.72742   -0.222659           
         O         O         0.17953   0.93072   0.74253   -0.220799           
         O         O         0.07166   0.74776   0.76068   -0.226148           
         C         C         0.25633   0.77211   0.73552   0.265603  
         C         C         0.22570   0.98202   0.73812   0.273008  
         C         C         0.01990   0.74345   0.75471   0.261343  
         C         C         0.00508   0.78146   0.72056   -0.202135           
         C         C         0.94891   0.76675   0.70613   -0.099559           
         C         C         0.90806   0.71584   0.72655   0.042928  
         C         C         0.92496   0.67912   0.76467   -0.080132           
         C         C         0.98021   0.69261   0.77760   -0.200493           
         C         C         0.28011   0.99469   0.74011   -0.210478           
         C         C         0.32090   0.04967   0.73902   -0.113046           
         C         C         0.30817   0.09121   0.73320   0.040074  
         C         C         0.25285   0.07694   0.73121   -0.083245           
         C         C         0.21212   0.02304   0.73395   -0.186960           
         C         C         0.21313   0.71763   0.73362   -0.201620           
         C         C         0.22687   0.67711   0.74242   -0.105473           
         C         C         0.28160   0.68908   0.74739   0.040479  
         C         C         0.32399   0.74424   0.74782   -0.089913           
         C         C         0.31173   0.78550   0.74306   -0.193212           
         H         H         0.03598   0.82047   0.70257   0.136231  
         H         H         0.93642   0.79545   0.67589   0.104421  
         H         H         0.89373   0.64036   0.78410   0.116346  
         H         H         0.99380   0.66455   0.80567   0.135426  
         H         H         0.29010   0.96274   0.74368   0.133432  
         H         H         0.36354   0.06024   0.74078   0.104851  
         H         H         0.24368   0.10974   0.73031   0.120369  
         H         H         0.16967   0.01165   0.73563   0.135342  
         H         H         0.17071   0.70790   0.72917   0.134724  
         H         H         0.19395   0.63517   0.74527   0.107592  
         H         H         0.36631   0.75343   0.75123   0.116457  
         H         H         0.34400   0.82813   0.74261   0.133498  
         C         C         0.49905   0.45711   0.25455   0.585580  
         N         N         0.54749   0.49963   0.24114   -0.519516           
         C         C         0.54560   0.54439   0.22686   0.579521  
         N         N         0.50150   0.55041   0.22546   -0.521956           
         C         C         0.45679   0.50550   0.24088   0.587883  
         N         N         0.45261   0.45723   0.25667   -0.528830           
         O         O         0.50261   0.41232   0.26669   -0.219363           
         O         O         0.58975   0.59031   0.20792   -0.228472           
         O         O         0.40855   0.50344   0.24208   -0.221752           
         C         C         0.45682   0.35743   0.25724   0.254915  
         C         C         0.64391   0.60034   0.21486   0.253782  
         C         C         0.39807   0.54630   0.23304   0.255011  
         C         C         0.43750   0.60233   0.23535   -0.191564           
         C         C         0.41847   0.63869   0.22558   -0.134211           
         C         C         0.36199   0.62128   0.21894   0.190641  
         C         C         0.32297   0.56432   0.21522   -0.157948           
         C         C         0.34094   0.52725   0.22229   -0.187240           
         C         C         0.66450   0.56664   0.25091   -0.188369           
         C         C         0.72135   0.58584   0.26071   -0.117053           
         C         C         0.75794   0.63719   0.23411   0.181827  
         C         C         0.73578   0.67026   0.19767   -0.160328           
         C         C         0.67945   0.65203   0.18866   -0.192030           
         C         C         0.40742   0.34519   0.29332   -0.199268           
         C         C         0.36628   0.28696   0.27437   -0.125949           
         C         C         0.37396   0.24137   0.22470   0.192057  
         C         C         0.42440   0.25530   0.18953   -0.157002           
         C         C         0.46529   0.31267   0.20540   -0.180761           
         H         H         0.48116   0.61640   0.24050   0.132535  
         H         H         0.44761   0.68191   0.22268   0.121432  
         H         H         0.27823   0.54878   0.20487   0.113800  
         H         H         0.31144   0.48331   0.22039   0.131764  
         H         H         0.63735   0.52729   0.27383   0.135267  
         H         H         0.73909   0.56113   0.29177   0.122853  
         H         H         0.76205   0.70990   0.17356   0.111333  
         H         H         0.66179   0.67701   0.16028   0.132917  
         H         H         0.40063   0.37962   0.33225   0.131670  
         H         H         0.32735   0.27596   0.30171   0.123160  
         H         H         0.43065   0.22057   0.14375   0.106592  
         H         H         0.50346   0.32374   0.17349   0.130463  
         N         N         0.34732   0.66112   0.20784   -0.296760           
         C         C         0.31075   0.66203   0.27366   0.073602  
         H         H         0.29201   0.63426   0.34810   0.067094  
         N         N         0.81376   0.65057   0.24710   -0.303707           
         C         C         0.84913   0.69357   0.20951   0.075594  
         H         H         0.83804   0.72199   0.16441   0.059969  
         N         N         0.33045   0.18538   0.21557   -0.292084           
         C         C         0.34300   0.14825   0.23038   0.069396  
         H         H         0.38730   0.15828   0.24916   0.057455  
         C         C         0.20679   0.82435   0.22731   0.586708  
         N         N         0.21600   0.87580   0.22509   -0.524368           
         C         C         0.17391   0.88138   0.24460   0.584928  
         N         N         0.12497   0.84109   0.26133   -0.515845           
         C         C         0.12067   0.79181   0.25513   0.576242  
         N         N         0.16049   0.78058   0.24064   -0.515843           
         O         O         0.25127   0.82136   0.21094   -0.220431           
         O         O         0.17575   0.93008   0.24877   -0.220883           
         O         O         0.07392   0.74612   0.26665   -0.226142           
         C         C         0.26022   0.77803   0.22720   0.262010  
         C         C         0.22017   0.98132   0.23876   0.269627  
         C         C         0.02084   0.73938   0.25803   0.261259  
         C         C         0.00384   0.77549   0.21909   -0.200435           
         C         C         0.94699   0.75888   0.20251   -0.096703           
         C         C         0.90752   0.70802   0.22585   0.042339  
         C         C         0.92634   0.67296   0.26764   -0.083038           
         C         C         0.98240   0.68832   0.28265   -0.200150           
         C         C         0.27406   0.99462   0.23395   -0.207837           
         C         C         0.31339   0.04966   0.23074   -0.109704           
         C         C         0.29989   0.09083   0.22977   0.038863  
         C         C         0.24506   0.07594   0.23378   -0.082688           
         C         C         0.20567   0.02182   0.23825   -0.186201           
         C         C         0.22448   0.72858   0.26119   -0.205755           
         C         C         0.24250   0.69170   0.27927   -0.103617           
         C         C         0.29368   0.70199   0.25711   0.036395  
         C         C         0.32836   0.75187   0.22073   -0.090163           
         C         C         0.31228   0.79002   0.20805   -0.193568           
         H         H         0.03365   0.81462   0.19940   0.134978  
         H         H         0.93270   0.78596   0.16818   0.104397  
         H         H         0.89608   0.63407   0.28859   0.114429  
         H         H         0.99760   0.66167   0.31404   0.134666  
         H         H         0.28488   0.96316   0.23438   0.133169  
         H         H         0.35550   0.06056   0.22658   0.103142  
         H         H         0.23524   0.10841   0.23667   0.120202  
         H         H         0.16375   0.01002   0.24532   0.133532  
         H         H         0.18458   0.71990   0.27664   0.132625  
         H         H         0.21596   0.65417   0.31190   0.106859  
         H         H         0.36798   0.75981   0.20342   0.114853  
         H         H         0.33884   0.82902   0.18172   0.128925 

