
##########################################################################
#               Crystallographic Information Format file
#               Produced by PyCifRW module
#
#  This is a CIF file.  CIF has been adopted by the International
#  Union of Crystallography as the standard for data archiving and
#  transmission.
#
#  For information on this file format, follow the CIF links at
#  http://www.iucr.org
##########################################################################

data_image0

_cell_length_a                          39.3411
_cell_length_b                          39.5561
_cell_length_c                          8.05387
_cell_angle_alpha                       104.064
_cell_angle_beta                        61.2205
_cell_angle_gamma                       119.907
_symmetry_space_group_name_H-M          'P 1'
_space_group_name_Hall                  'P 1'
loop_
  _atom_site_type_symbol
  _atom_site_label
  _atom_site_fract_x
  _atom_site_fract_y
  _atom_site_fract_z
  _atom_site_charge
         C         C         0.49600   0.46515   0.74278   0.589764  
         N         N         0.52986   0.49742   0.76036   -0.524249           
         C         C         0.52969   0.53045   0.75113   0.579465  
         N         N         0.49938   0.53388   0.73122   -0.514895           
         C         C         0.46775   0.49978   0.71833   0.577431  
         N         N         0.46416   0.46415   0.72076   -0.523107           
         O         O         0.49754   0.43227   0.75057   -0.222755           
         O         O         0.56143   0.56561   0.76162   -0.216873           
         O         O         0.43444   0.49723   0.69764   -0.227891           
         C         C         0.46716   0.39376   0.73987   0.251837  
         C         C         0.60051   0.57317   0.75851   0.258317  
         C         C         0.42502   0.52775   0.70798   0.252388  
         C         C         0.44872   0.56734   0.73668   -0.184846           
         C         C         0.43208   0.59271   0.75502   -0.121965           
         C         C         0.39317   0.57986   0.74087   0.183232  
         C         C         0.36999   0.53965   0.71201   -0.162947           
         C         C         0.38590   0.51396   0.69534   -0.188272           
         C         C         0.60986   0.54695   0.79651   -0.198466           
         C         C         0.65130   0.56032   0.78330   -0.121898           
         C         C         0.68335   0.59903   0.73540   0.189404  
         C         C         0.67270   0.62482   0.69924   -0.155066           
         C         C         0.63172   0.61206   0.71133   -0.182999           
         C         C         0.42566   0.38136   0.75557   -0.188930           
         C         C         0.39978   0.34152   0.74519   -0.131958           
         C         C         0.41382   0.31371   0.72512   0.192631  
         C         C         0.45582   0.32708   0.70919   -0.157684           
         C         C         0.48227   0.36673   0.71619   -0.184694           
         H         H         0.47863   0.57772   0.74880   0.138048  
         H         H         0.44913   0.62356   0.78257   0.126248  
         H         H         0.33945   0.52840   0.70291   0.113719  
         H         H         0.36856   0.48292   0.67248   0.134106  
         H         H         0.58579   0.51693   0.83263   0.131603  
         H         H         0.65958   0.54075   0.81322   0.123113  
         H         H         0.69681   0.65479   0.65774   0.108251  
         H         H         0.62327   0.63142   0.68081   0.132255  
         H         H         0.41438   0.40239   0.77047   0.133885  
         H         H         0.36773   0.33119   0.75296   0.122360  
         H         H         0.46806   0.30628   0.68717   0.110822  
         H         H         0.51475   0.37741   0.70404   0.132746  
         N         N         0.38092   0.60866   0.75762   -0.297771           
         C         C         0.35231   0.60257   0.70270   0.072884  
         H         H         0.33625   0.57485   0.63930   0.064362  
         N         N         0.72315   0.60854   0.73134   -0.288970           
         C         C         0.75164   0.64449   0.72546   0.064348  
         H         H         0.74670   0.66923   0.72067   0.058374  
         N         N         0.38614   0.27441   0.71047   -0.290229           
         C         C         0.38644   0.24748   0.77317   0.074879  
         H         H         0.40616   0.25428   0.84882   0.065760  
         C         C         0.16918   0.86762   0.72506   0.588526  
         N         N         0.13474   0.83569   0.70950   -0.529354           
         C         C         0.13456   0.80240   0.71716   0.582275  
         N         N         0.16487   0.79846   0.73444   -0.517301           
         C         C         0.19689   0.83223   0.74700   0.578275  
         N         N         0.20095   0.86808   0.74550   -0.520971           
         O         O         0.16827   0.90079   0.71664   -0.222527           
         O         O         0.10259   0.76739   0.70658   -0.220422           
         O         O         0.23014   0.83414   0.76602   -0.227663           
         C         C         0.19901   0.93909   0.72635   0.253899  
         C         C         0.06367   0.75988   0.70857   0.262662  
         C         C         0.23810   0.80281   0.75854   0.257246  
         C         C         0.21563   0.76403   0.71380   -0.194536           
         C         C         0.22993   0.73746   0.70571   -0.115374           
         C         C         0.26547   0.74820   0.74295   0.180273  
         C         C         0.28748   0.78769   0.78789   -0.154475           
         C         C         0.27391   0.81462   0.79504   -0.195384           
         C         C         0.05439   0.78600   0.66925   -0.201615           
         C         C         0.01313   0.77242   0.67969   -0.120023           
         C         C         0.98124   0.73363   0.72671   0.190670  
         C         C         0.99187   0.70796   0.76394   -0.158637           
         C         C         0.03263   0.72092   0.75431   -0.179817           
         C         C         0.24002   0.95084   0.71443   -0.191930           
         C         C         0.26626   0.99057   0.72479   -0.130577           
         C         C         0.25315   0.01883   0.74078   0.190165  
         C         C         0.21162   0.00611   0.75267   -0.158037           
         C         C         0.18474   0.96658   0.74634   -0.185699           
         H         H         0.18815   0.75494   0.68447   0.136359  
         H         H         0.21363   0.70714   0.66854   0.122671  
         H         H         0.31487   0.79750   0.82016   0.109113  
         H         H         0.29045   0.84511   0.82959   0.134112  
         H         H         0.07830   0.81610   0.63416   0.133427  
         H         H         0.00487   0.79187   0.64855   0.122614  
         H         H         0.96797   0.67791   0.80422   0.107856  
         H         H         0.04121   0.70170   0.78505   0.131357  
         H         H         0.25069   0.92946   0.70128   0.134394  
         H         H         0.29790   0.00044   0.72010   0.122704  
         H         H         0.20018   0.02730   0.77019   0.111991  
         H         H         0.15257   0.95631   0.75568   0.132594  
         N         N         0.27526   0.71792   0.73177   -0.300300           
         C         C         0.30622   0.72336   0.76880   0.072523  
         H         H         0.32687   0.75174   0.81153   0.060786  
         N         N         0.94145   0.72379   0.72996   -0.287440           
         C         C         0.91302   0.68779   0.73625   0.062769  
         H         H         0.91815   0.66309   0.73999   0.058122  
         N         N         0.28134   0.05799   0.75455   -0.289964           
         C         C         0.28183   0.08500   0.68842   0.071130  
         H         H         0.26244   0.07835   0.61133   0.067830  
         C         C         0.87194   0.67719   0.73531   0.057975  
         C         C         0.84022   0.63783   0.75968   -0.130647           
         C         C         0.82411   0.69443   0.70490   -0.130918           
         H         H         0.84658   0.61606   0.78404   0.103371  
         C         C         0.86324   0.70537   0.70774   -0.107609           
         C         C         0.80106   0.62688   0.75699   -0.106326           
         H         H         0.88828   0.73544   0.68557   0.120123  
         C         C         0.79250   0.65505   0.72829   0.056844  
         H         H         0.77599   0.59682   0.77953   0.119148  
         H         H         0.81768   0.71621   0.68110   0.103453  
         C         C         0.31664   0.69188   0.75376   0.062292  
         C         C         0.35262   0.70033   0.78324   -0.123671           
         C         C         0.30430   0.62451   0.68931   -0.130696           
         H         H         0.37120   0.72996   0.82072   0.103752  
         C         C         0.29243   0.65337   0.70721   -0.105187           
         C         C         0.36421   0.67143   0.76725   -0.100096           
         H         H         0.26498   0.64721   0.68286   0.113622  
         C         C         0.34026   0.63301   0.71941   0.058172  
         H         H         0.39160   0.67749   0.79170   0.114586  
         H         H         0.28579   0.59489   0.65119   0.103379  
         C         C         0.30888   0.12623   0.70932   0.056281  
         C         C         0.30081   0.15466   0.67885   -0.128831           
         C         C         0.36803   0.17776   0.77993   -0.128020           
         H         H         0.27486   0.14553   0.63752   0.106477  
         C         C         0.34303   0.13835   0.75923   -0.112552           
         C         C         0.32579   0.19407   0.69957   -0.110158           
         H         H         0.34891   0.11619   0.78280   0.115482  
         C         C         0.35980   0.20617   0.75039   0.054259  
         H         H         0.32009   0.21626   0.67498   0.113710  
         H         H         0.39407   0.18693   0.82081   0.104764  
         C         C         0.49836   0.46658   0.24113   0.586725  
         N         N         0.53295   0.49868   0.25431   -0.526489           
         C         C         0.53246   0.53185   0.25065   0.581124  
         N         N         0.50150   0.53542   0.23757   -0.517412           
         C         C         0.46918   0.50151   0.22870   0.575938  
         N         N         0.46549   0.46574   0.22848   -0.519597           
         O         O         0.50040   0.43362   0.24278   -0.219964           
         O         O         0.56419   0.56698   0.26259   -0.220748           
         O         O         0.43528   0.49960   0.21544   -0.225411           
         C         C         0.46950   0.39515   0.23785   0.261272  
         C         C         0.60339   0.57433   0.25752   0.258689  
         C         C         0.42828   0.53134   0.21881   0.252794  
         C         C         0.44929   0.56949   0.27494   -0.194492           
         C         C         0.43602   0.59660   0.27934   -0.116411           
         C         C         0.40254   0.58682   0.22925   0.180973  
         C         C         0.38208   0.54799   0.17245   -0.156060           
         C         C         0.39480   0.52060   0.16788   -0.195533           
         C         C         0.61162   0.54849   0.30590   -0.197637           
         C         C         0.65284   0.56153   0.29413   -0.124255           
         C         C         0.68558   0.59974   0.23881   0.191364  
         C         C         0.67610   0.62510   0.19132   -0.155642           
         C         C         0.63542   0.61253   0.20056   -0.183423           
         C         C         0.43310   0.38276   0.20588   -0.199167           
         C         C         0.40707   0.34274   0.20078   -0.123160           
         C         C         0.41614   0.31490   0.22816   0.180977  
         C         C         0.45312   0.32841   0.26039   -0.144872           
         C         C         0.47941   0.36804   0.26550   -0.187759           
         H         H         0.47501   0.57765   0.31488   0.134573  
         H         H         0.45124   0.62636   0.32585   0.122157  
         H         H         0.35680   0.53920   0.12745   0.105853  
         H         H         0.37970   0.49078   0.12167   0.132803  
         H         H         0.58688   0.51889   0.34855   0.130685  
         H         H         0.66031   0.54222   0.33139   0.121553  
         H         H         0.70114   0.65429   0.14035   0.107060  
         H         H         0.62780   0.63129   0.15985   0.130841  
         H         H         0.42554   0.40368   0.18409   0.132126  
         H         H         0.37883   0.33218   0.17375   0.117444  
         H         H         0.46130   0.30807   0.28414   0.109399  
         H         H         0.50767   0.37877   0.29253   0.128727  
         N         N         0.39298   0.61727   0.24047   -0.300273           
         C         C         0.36147   0.61166   0.20715   0.071303  
         H         H         0.34036   0.58302   0.16871   0.061972  
         N         N         0.72555   0.60945   0.23317   -0.280912           
         C         C         0.75213   0.64545   0.24355   0.062582  
         H         H         0.74452   0.66968   0.25957   0.058845  
         N         N         0.38717   0.27573   0.21952   -0.293765           
         C         C         0.39183   0.24759   0.24626   0.058606  
         H         H         0.41843   0.25235   0.27571   0.065336  
         C         C         0.16939   0.86812   0.23020   0.588514  
         N         N         0.13539   0.83568   0.21511   -0.525943           
         C         C         0.13621   0.80278   0.22025   0.584539  
         N         N         0.16689   0.79965   0.23862   -0.516486           
         C         C         0.19846   0.83391   0.25111   0.576297  
         N         N         0.20188   0.86945   0.24806   -0.519245           
         O         O         0.16709   0.90067   0.22370   -0.220535           
         O         O         0.10482   0.76763   0.20613   -0.222311           
         O         O         0.23187   0.83686   0.27302   -0.227338           
         C         C         0.19731   0.93942   0.22967   0.260698  
         C         C         0.06587   0.76047   0.20844   0.256403  
         C         C         0.24143   0.80660   0.26540   0.250819  
         C         C         0.21877   0.76718   0.23032   -0.186290           
         C         C         0.23509   0.74193   0.21785   -0.117948           
         C         C         0.27282   0.75466   0.24187   0.181057  
         C         C         0.29511   0.79479   0.27599   -0.159057           
         C         C         0.27944   0.82037   0.28791   -0.189870           
         C         C         0.05786   0.78664   0.16115   -0.196599           
         C         C         0.01682   0.77395   0.17167   -0.128082           
         C         C         0.98391   0.73572   0.22506   0.191419  
         C         C         0.99306   0.71002   0.27186   -0.157255           
         C         C         0.03357   0.72228   0.26396   -0.179526           
         C         C         0.23394   0.95245   0.26064   -0.197138           
         C         C         0.25945   0.99257   0.26558   -0.123650           
         C         C         0.24954   0.01989   0.23923   0.182951  
         C         C         0.21216   0.00577   0.20932   -0.149444           
         C         C         0.18644   0.96600   0.20420   -0.188086           
         H         H         0.18970   0.75672   0.21092   0.136327  
         H         H         0.21874   0.71116   0.18715   0.123696  
         H         H         0.32477   0.80618   0.29299   0.112093  
         H         H         0.29618   0.85132   0.31428   0.133713  
         H         H         0.08271   0.81625   0.12035   0.131339  
         H         H         0.00987   0.79363   0.13392   0.122906  
         H         H         0.96789   0.68068   0.32008   0.108715  
         H         H         0.04064   0.70319   0.30552   0.129057  
         H         H         0.24195   0.93189   0.28242   0.131760  
         H         H         0.28793   0.00359   0.29155   0.119062  
         H         H         0.20320   0.02574   0.18782   0.113630  
         H         H         0.15788   0.95474   0.17881   0.129192  
         N         N         0.28459   0.72564   0.22790   -0.300618           
         C         C         0.31444   0.73186   0.27495   0.071176  
         H         H         0.33262   0.76016   0.32790   0.061410  
         N         N         0.94413   0.72638   0.22979   -0.283722           
         C         C         0.91734   0.69047   0.21903   0.063254  
         H         H         0.92478   0.66611   0.20204   0.059447  
         N         N         0.27823   0.05922   0.24708   -0.294978           
         C         C         0.27424   0.08715   0.21395   0.061189  
         H         H         0.24834   0.08219   0.17885   0.064599  
         C         C         0.87546   0.67958   0.22579   0.063261  
         C         C         0.84509   0.63984   0.24109   -0.135350           
         C         C         0.82424   0.69631   0.22403   -0.135008           
         H         H         0.85322   0.61803   0.25112   0.105439  
         C         C         0.86442   0.70775   0.21746   -0.106529           
         C         C         0.80492   0.62843   0.24777   -0.104743           
         H         H         0.88836   0.73821   0.20331   0.120471  
         C         C         0.79396   0.65655   0.23817   0.058963  
         H         H         0.78094   0.59799   0.26213   0.119431  
         H         H         0.81605   0.71808   0.21423   0.105800  
         C         C         0.32613   0.70123   0.25933   0.061206  
         C         C         0.36269   0.71012   0.28564   -0.127440           
         C         C         0.31413   0.63406   0.19733   -0.124945           
         H         H         0.38117   0.73989   0.32213   0.101971  
         C         C         0.30194   0.66260   0.21456   -0.101004           
         C         C         0.37514   0.68163   0.26675   -0.106912           
         H         H         0.27408   0.65605   0.19249   0.115554  
         C         C         0.35079   0.64297   0.22257   0.061999  
         H         H         0.40307   0.68818   0.28836   0.114658  
         H         H         0.29554   0.60427   0.16156   0.102603  
         C         C         0.30442   0.12785   0.22194   0.058437  
         C         C         0.29382   0.15752   0.22849   -0.129739           
         C         C         0.37224   0.17730   0.23120   -0.127658           
         H         H         0.26327   0.14954   0.22601   0.107552  
         C         C         0.34421   0.13833   0.22260   -0.110575           
         C         C         0.32182   0.19648   0.23760   -0.107551           
         H         H         0.35192   0.11518   0.21832   0.116144  
         C         C         0.36165   0.20698   0.23792   0.058732  
         H         H         0.31410   0.21965   0.24237   0.115190  
         H         H         0.40277   0.18529   0.23389   0.107125 

