
##########################################################################
#               Crystallographic Information Format file
#               Produced by PyCifRW module
#
#  This is a CIF file.  CIF has been adopted by the International
#  Union of Crystallography as the standard for data archiving and
#  transmission.
#
#  For information on this file format, follow the CIF links at
#  http://www.iucr.org
##########################################################################

data_image0

_cell_length_a                          11.0772
_cell_length_b                          11.0783
_cell_length_c                          7.95617
_cell_angle_alpha                       109.668
_cell_angle_beta                        101.586
_cell_angle_gamma                       119.925
_symmetry_space_group_name_H-M          'P 1'
_space_group_name_Hall                  'P 1'
loop_
  _atom_site_type_symbol
  _atom_site_label
  _atom_site_fract_x
  _atom_site_fract_y
  _atom_site_fract_z
  _atom_site_charge
         C         C         0.82414   0.38758   0.24804   0.403784  
         C         C         0.64230   0.42865   0.25337   0.404700  
         C         C         0.60245   0.20486   0.24957   0.397205  
         C         C         0.21670   0.62139   0.23837   0.399641  
         C         C         0.40393   0.58666   0.25156   0.406597  
         C         C         0.44263   0.80768   0.24744   0.398068  
         N         N         0.74070   0.24927   0.24993   -0.400524           
         N         N         0.78079   0.48277   0.25117   -0.399071           
         N         N         0.54770   0.28952   0.25074   -0.394608           
         N         N         0.30089   0.75950   0.23611   -0.399011           
         N         N         0.26224   0.52931   0.24389   -0.396712           
         N         N         0.50004   0.72660   0.25666   -0.398363           
         C         C         0.50230   0.05383   0.24583   -0.137958           
         C         C         0.97174   0.43620   0.24257   -0.134095           
         C         C         0.59194   0.52813   0.25551   -0.138133           
         C         C         0.54331   0.95871   0.25124   -0.132957           
         C         C         0.06693   0.57075   0.23778   -0.140650           
         C         C         0.45520   0.48852   0.25473   -0.132370           
         H         H         0.38989   0.02028   0.23834   0.133259  
         H         H         0.00284   0.35738   0.24356   0.132831  
         H         H         0.67070   0.63793   0.25517   0.131313  
         H         H         0.65576   0.99215   0.25912   0.132957  
         H         H         0.03546   0.64918   0.23622   0.133067  
         H         H         0.37590   0.37875   0.25480   0.130562  
         C         C         0.78281   0.37739   0.75823   0.402002  
         C         C         0.59768   0.41473   0.75163   0.406161  
         C         C         0.55799   0.19235   0.75224   0.400526  
         C         C         0.17660   0.61289   0.75209   0.400639  
         C         C         0.35788   0.57118   0.74524   0.406923  
         C         C         0.39802   0.79537   0.75009   0.398298  
         N         N         0.69802   0.23835   0.75840   -0.401767           
         N         N         0.73896   0.47163   0.75800   -0.397455           
         N         N         0.50164   0.27479   0.74639   -0.398079           
         N         N         0.26048   0.75182   0.75170   -0.398734           
         N         N         0.21906   0.51668   0.74645   -0.400576           
         N         N         0.45263   0.71054   0.74849   -0.395716           
         C         C         0.45807   0.04242   0.75090   -0.135160           
         C         C         0.93156   0.42698   0.75608   -0.143324           
         C         C         0.54696   0.51354   0.75010   -0.134136           
         C         C         0.49748   0.94537   0.75152   -0.138625           
         C         C         0.02929   0.56451   0.75849   -0.131099           
         C         C         0.40798   0.47142   0.74283   -0.137217           
         H         H         0.34779   0.01151   0.74958   0.134613  
         H         H         0.96018   0.34534   0.75029   0.133100  
         H         H         0.62799   0.62555   0.75568   0.131760  
         H         H         0.60791   0.97658   0.75310   0.134292  
         H         H         0.00057   0.64606   0.76425   0.132414  
         H         H         0.32744   0.35938   0.73757   0.131632 

