
##########################################################################
#               Crystallographic Information Format file
#               Produced by PyCifRW module
#
#  This is a CIF file.  CIF has been adopted by the International
#  Union of Crystallography as the standard for data archiving and
#  transmission.
#
#  For information on this file format, follow the CIF links at
#  http://www.iucr.org
##########################################################################

data_image0

_cell_length_a                          14.6289
_cell_length_b                          14.6082
_cell_length_c                          8.02848
_cell_angle_alpha                       113.794
_cell_angle_beta                        92.1078
_cell_angle_gamma                       120.063
_symmetry_space_group_name_H-M          'P 1'
_space_group_name_Hall                  'P 1'
loop_
  _atom_site_type_symbol
  _atom_site_label
  _atom_site_fract_x
  _atom_site_fract_y
  _atom_site_fract_z
  _atom_site_charge
         C         C         0.23095   0.59943   0.23876   0.378514  
         N         N         0.26332   0.69947   0.22251   -0.386302           
         H         H         0.08749   0.64424   0.17291   0.111180  
         C         C         0.11431   0.36693   0.27535   -0.146723           
         H         H         0.20037   0.41103   0.27934   0.096108  
         C         C         0.06201   0.26388   0.29347   -0.075500           
         H         H         0.10843   0.22816   0.31554   0.100140  
         C         C         0.94264   0.35981   0.24241   0.056486  
         C         C         0.11234   0.52595   0.22866   -0.028002           
         C         C         0.04914   0.56698   0.19705   -0.099097           
         C         C         0.40680   0.64216   0.27402   0.373824  
         N         N         0.29987   0.56771   0.26279   -0.385783           
         H         H         0.35312   0.46001   0.32883   0.112290  
         C         C         0.64766   0.76162   0.25755   -0.142650           
         H         H         0.60707   0.80790   0.27184   0.098276  
         C         C         0.75196   0.80949   0.23480   -0.080340           
         H         H         0.79279   0.89348   0.22820   0.100459  
         C         C         0.64465   0.59044   0.25214   0.054413  
         C         C         0.47957   0.59972   0.28413   -0.031536           
         C         C         0.43378   0.49724   0.30599   -0.104779           
         C         C         0.37105   0.77224   0.24599   0.370190  
         N         N         0.44580   0.74664   0.27340   -0.388348           
         H         H         0.56486   0.89659   0.21265   0.112868  
         C         C         0.25107   0.89819   0.26456   -0.133517           
         H         H         0.21216   0.81739   0.27850   0.100561  
         C         C         0.19580   0.95172   0.26371   -0.078928           
         H         H         0.11260   0.91216   0.27776   0.097405  
         C         C         0.41499   0.05776   0.23847   0.050734  
         C         C         0.41610   0.88718   0.23963   -0.027023           
         C         C         0.52251   0.94097   0.22328   -0.098552           
         C         C         0.59786   0.22863   0.22924   0.373892  
         N         N         0.69888   0.25692   0.20827   -0.388588           
         H         H         0.65923   0.08741   0.20631   0.112910  
         C         C         0.35442   0.10897   0.23612   -0.131816           
         H         H         0.39465   0.19008   0.22299   0.096987  
         C         C         0.24741   0.05707   0.24665   -0.082693           
         H         H         0.20348   0.09833   0.24151   0.096803  
         C         C         0.35969   0.94563   0.24690   0.048014  
         C         C         0.52707   0.11131   0.22837   -0.032695           
         C         C         0.57624   0.04962   0.21889   -0.095172           
         C         C         0.63432   0.40651   0.25327   0.377880  
         N         N         0.56352   0.30114   0.25300   -0.384004           
         H         H         0.44949   0.36264   0.32197   0.111910  
         C         C         0.75048   0.64124   0.22340   -0.148176           
         H         H         0.78991   0.59392   0.21051   0.095830  
         C         C         0.80307   0.74752   0.21460   -0.075263           
         H         H         0.88355   0.78221   0.18952   0.100511  
         C         C         0.58949   0.65158   0.26463   0.054197  
         C         C         0.59082   0.48156   0.26782   -0.027903           
         C         C         0.48798   0.44064   0.29979   -0.100972           
         C         C         0.76703   0.36531   0.22171   0.369326  
         N         N         0.73711   0.44274   0.24280   -0.386564           
         H         H         0.89286   0.54593   0.16404   0.112210  
         C         C         0.89307   0.25534   0.26550   -0.141340           
         H         H         0.80752   0.21391   0.26432   0.098690  
         C         C         0.95020   0.20749   0.28907   -0.077409           
         H         H         0.90915   0.12842   0.30946   0.099915  
         C         C         0.05855   0.41859   0.24864   0.053573  
         C         C         0.88281   0.40929   0.21618   -0.028668           
         C         C         0.93801   0.51028   0.19060   -0.106628           
         C         C         0.22831   0.59276   0.73758   0.375193  
         N         N         0.26084   0.69360   0.72381   -0.383422           
         H         H         0.08255   0.63168   0.65682   0.111153  
         C         C         0.11343   0.36445   0.78548   -0.151133           
         H         H         0.20021   0.41052   0.79475   0.095829  
         C         C         0.06134   0.26116   0.80288   -0.072751           
         H         H         0.10856   0.22724   0.82978   0.099631  
         C         C         0.94054   0.35419   0.74441   0.054551  
         C         C         0.10969   0.51910   0.72705   -0.029896           
         C         C         0.04530   0.55707   0.68759   -0.097979           
         C         C         0.40418   0.63559   0.77220   0.374441  
         N         N         0.29700   0.56026   0.75885   -0.385382           
         H         H         0.34982   0.45264   0.82426   0.110681  
         C         C         0.64422   0.75370   0.75240   -0.144158           
         H         H         0.60232   0.79822   0.76191   0.097731  
         C         C         0.74901   0.80238   0.73178   -0.076524           
         H         H         0.78871   0.88484   0.72071   0.099351  
         C         C         0.64312   0.58511   0.75431   0.054337  
         C         C         0.47699   0.59311   0.78233   -0.027973           
         C         C         0.43091   0.49027   0.80320   -0.104664           
         C         C         0.36840   0.76613   0.74608   0.372872  
         N         N         0.44325   0.74060   0.77337   -0.389938           
         H         H         0.56208   0.89029   0.71163   0.113023  
         C         C         0.24734   0.89066   0.76021   -0.133587           
         H         H         0.20747   0.80860   0.77058   0.100006  
         C         C         0.19247   0.94479   0.76060   -0.080290           
         H         H         0.10862   0.90429   0.77163   0.098366  
         C         C         0.41279   0.05225   0.74026   0.050238  
         C         C         0.41327   0.88086   0.73900   -0.031851           
         C         C         0.51968   0.93461   0.72240   -0.098319           
         C         C         0.59575   0.22307   0.73130   0.372278  
         N         N         0.69659   0.25089   0.70972   -0.388368           
         H         H         0.65632   0.08062   0.70403   0.113714  
         C         C         0.35278   0.10432   0.74008   -0.133395           
         H         H         0.39375   0.18653   0.73006   0.097997  
         C         C         0.24537   0.05186   0.74850   -0.080461           
         H         H         0.20192   0.09387   0.74510   0.096413  
         C         C         0.35675   0.93922   0.74600   0.050003  
         C         C         0.52479   0.10559   0.72981   -0.031802           
         C         C         0.57360   0.04327   0.71808   -0.094895           
         C         C         0.63241   0.40079   0.75435   0.378341  
         N         N         0.56179   0.29597   0.75583   -0.383283           
         H         H         0.44594   0.35506   0.81767   0.109400  
         C         C         0.75030   0.63774   0.73077   -0.149163           
         H         H         0.79146   0.59275   0.72431   0.096542  
         C         C         0.80225   0.74325   0.71965   -0.073430           
         H         H         0.88391   0.77950   0.69900   0.099795  
         C         C         0.58705   0.64501   0.76343   0.054178  
         C         C         0.58886   0.47577   0.76860   -0.028331           
         C         C         0.48516   0.43377   0.79738   -0.100373           
         C         C         0.76456   0.35876   0.72136   0.371837  
         N         N         0.73470   0.43610   0.74151   -0.386435           
         H         H         0.88811   0.53362   0.64890   0.111572  
         C         C         0.89113   0.24963   0.76710   -0.141559           
         H         H         0.80521   0.20720   0.76365   0.098630  
         C         C         0.94866   0.20247   0.79212   -0.082509           
         H         H         0.90730   0.12253   0.81003   0.099175  
         C         C         0.05664   0.41364   0.75221   0.057010  
         C         C         0.88011   0.40226   0.71456   -0.028989           
         C         C         0.93420   0.50049   0.68195   -0.104552 

