
##########################################################################
#               Crystallographic Information Format file
#               Produced by PyCifRW module
#
#  This is a CIF file.  CIF has been adopted by the International
#  Union of Crystallography as the standard for data archiving and
#  transmission.
#
#  For information on this file format, follow the CIF links at
#  http://www.iucr.org
##########################################################################

data_image0

_cell_length_a                          47.4898
_cell_length_b                          47.8092
_cell_length_c                          8.06706
_cell_angle_alpha                       59.7297
_cell_angle_beta                        106.008
_cell_angle_gamma                       120.182
_symmetry_space_group_name_H-M          'P 1'
_space_group_name_Hall                  'P 1'
loop_
  _atom_site_type_symbol
  _atom_site_label
  _atom_site_fract_x
  _atom_site_fract_y
  _atom_site_fract_z
  _atom_site_charge
         N         N         0.14690   0.57474   0.22945   -0.289275           
         N         N         0.43156   0.57152   0.25178   -0.290646           
         N         N         0.42926   0.85551   0.26766   -0.286262           
         N         N         0.85806   0.42582   0.27099   -0.297099           
         N         N         0.57236   0.42885   0.21668   -0.276514           
         N         N         0.57065   0.14477   0.23671   -0.279187           
         N         N         0.01093   0.51662   0.25315   -0.148127           
         N         N         0.48827   0.49310   0.25268   -0.138348           
         N         N         0.50590   0.99037   0.27553   -0.143302           
         N         N         0.99442   0.48431   0.27008   -0.144915           
         N         N         0.51883   0.50982   0.22033   -0.149641           
         N         N         0.49106   0.00630   0.27883   -0.148710           
         C         C         0.16747   0.59949   0.28446   0.074402  
         C         C         0.11335   0.56112   0.24059   0.207235  
         C         C         0.09773   0.58039   0.23132   -0.172775           
         C         C         0.06396   0.56463   0.23804   -0.131995           
         C         C         0.04489   0.52951   0.25249   0.158822  
         C         C         0.06043   0.51016   0.26175   -0.131156           
         C         C         0.09401   0.52598   0.25357   -0.142791           
         C         C         0.40054   0.56145   0.24808   0.068745  
         C         C         0.44394   0.55037   0.25318   0.214844  
         C         C         0.42557   0.51777   0.23573   -0.167322           
         C         C         0.44116   0.49955   0.23932   -0.129941           
         C         C         0.47542   0.51353   0.25581   0.164004  
         C         C         0.49395   0.54589   0.27469   -0.135856           
         C         C         0.47822   0.56368   0.27410   -0.136444           
         C         C         0.44035   0.83904   0.23437   0.076528  
         C         C         0.44946   0.88919   0.26609   0.211434  
         C         C         0.48364   0.90309   0.29701   -0.179255           
         C         C         0.50146   0.93681   0.29592   -0.127650           
         C         C         0.48559   0.95702   0.27058   0.161820  
         C         C         0.45144   0.94316   0.24133   -0.131180           
         C         C         0.43393   0.90981   0.23997   -0.138971           
         C         C         0.83817   0.39948   0.22668   0.071448  
         C         C         0.89184   0.43919   0.26890   0.208039  
         C         C         0.90808   0.42004   0.28391   -0.170236           
         C         C         0.94195   0.43599   0.28323   -0.131286           
         C         C         0.96041   0.47124   0.26862   0.160524  
         C         C         0.94426   0.49028   0.25629   -0.127599           
         C         C         0.91049   0.47427   0.25798   -0.144654           
         C         C         0.60308   0.43691   0.24998   0.066348  
         C         C         0.56008   0.45014   0.21377   0.211642  
         C         C         0.57778   0.48761   0.15707   -0.175966           
         C         C         0.56345   0.50636   0.16185   -0.137711           
         C         C         0.53122   0.48839   0.22205   0.163301  
         C         C         0.51328   0.45110   0.27456   -0.126508           
         C         C         0.52742   0.43249   0.26825   -0.139046           
         C         C         0.56028   0.16666   0.21696   0.070189  
         C         C         0.54940   0.11105   0.24199   0.199485  
         C         C         0.51630   0.09178   0.29034   -0.180225           
         C         C         0.49788   0.05733   0.30182   -0.131062           
         C         C         0.51196   0.04089   0.26828   0.156961  
         C         C         0.54508   0.06000   0.22043   -0.128771           
         C         C         0.56330   0.09432   0.20891   -0.138422           
         H         H         0.15973   0.60984   0.34990   0.068310  
         H         H         0.11214   0.60779   0.21628   0.112810  
         H         H         0.10639   0.51199   0.25391   0.122133  
         H         H         0.05159   0.57907   0.23246   0.119683  
         H         H         0.04537   0.48333   0.26937   0.115922  
         H         H         0.38175   0.53591   0.24489   0.061309  
         H         H         0.39918   0.50686   0.21800   0.108202  
         H         H         0.49161   0.58839   0.29174   0.119668  
         H         H         0.42760   0.47461   0.22411   0.113759  
         H         H         0.52029   0.55605   0.29177   0.114340  
         H         H         0.46564   0.85110   0.19271   0.059285  
         H         H         0.49623   0.88756   0.32152   0.108564  
         H         H         0.40759   0.89812   0.21895   0.119756  
         H         H         0.52787   0.94846   0.31656   0.118071  
         H         H         0.43949   0.95919   0.21898   0.115723  
         H         H         0.84653   0.38712   0.17887   0.072394  
         H         H         0.89416   0.39266   0.29728   0.110492  
         H         H         0.89731   0.48800   0.25200   0.122895  
         H         H         0.95499   0.42169   0.29527   0.118386  
         H         H         0.95886   0.51711   0.24955   0.116886  
         H         H         0.62018   0.45968   0.28399   0.063854  
         H         H         0.60229   0.50189   0.10411   0.108277  
         H         H         0.51406   0.40377   0.30667   0.117823  
         H         H         0.57657   0.53524   0.11837   0.114985  
         H         H         0.48832   0.43772   0.31863   0.113914  
         H         H         0.53439   0.16105   0.19107   0.062267  
         H         H         0.50560   0.10316   0.32821   0.109611  
         H         H         0.58878   0.10965   0.17105   0.122392  
         H         H         0.47252   0.04185   0.34322   0.116938  
         H         H         0.55553   0.04731   0.19127   0.114394  
         C         C         0.35758   0.69847   0.26014   0.371336  
         C         C         0.30608   0.65530   0.25278   0.372064  
         C         C         0.35008   0.64881   0.24455   0.370490  
         C         C         0.64787   0.30054   0.25655   0.371417  
         C         C         0.69959   0.34356   0.25883   0.376885  
         C         C         0.65624   0.35141   0.26178   0.370544  
         N         N         0.37122   0.68032   0.25221   -0.409631           
         N         N         0.32521   0.68699   0.26197   -0.409447           
         N         N         0.31733   0.63537   0.24296   -0.409795           
         N         N         0.63479   0.31973   0.25786   -0.407347           
         N         N         0.68018   0.31110   0.25955   -0.411839           
         N         N         0.68888   0.36468   0.26116   -0.415067           
         C         C         0.37917   0.73365   0.26443   0.009867  
         C         C         0.27039   0.64150   0.25432   0.007658  
         C         C         0.36338   0.62708   0.24043   0.008695  
         C         C         0.24902   0.60966   0.23296   -0.101812           
         C         C         0.39721   0.63736   0.26170   -0.091756           
         C         C         0.36596   0.75217   0.28675   -0.102687           
         C         C         0.21554   0.59654   0.23696   -0.109118           
         C         C         0.40944   0.61623   0.26417   -0.104408           
         C         C         0.38568   0.78616   0.27920   -0.100114           
         C         C         0.20249   0.61422   0.26812   0.059942  
         C         C         0.38827   0.58414   0.24523   0.063139  
         C         C         0.41926   0.80305   0.24641   0.066703  
         C         C         0.22391   0.64579   0.29096   -0.129648           
         C         C         0.35457   0.57425   0.22188   -0.134794           
         C         C         0.43243   0.78444   0.22566   -0.132387           
         C         C         0.25741   0.65965   0.28073   -0.100598           
         C         C         0.34217   0.59533   0.21914   -0.106278           
         C         C         0.41280   0.75001   0.23639   -0.095545           
         C         C         0.62534   0.26606   0.24756   0.005966  
         C         C         0.73513   0.35744   0.25178   0.004493  
         C         C         0.64289   0.37325   0.26324   0.007934  
         C         C         0.75626   0.39098   0.25414   -0.098411           
         C         C         0.60910   0.36295   0.23386   -0.094019           
         C         C         0.63756   0.24386   0.25704   -0.097912           
         C         C         0.78965   0.40460   0.24641   -0.110586           
         C         C         0.59610   0.38385   0.22567   -0.106715           
         C         C         0.61660   0.21147   0.24812   -0.101631           
         C         C         0.80301   0.38530   0.23423   0.060113  
         C         C         0.61648   0.41532   0.25128   0.059539  
         C         C         0.58269   0.20050   0.22734   0.069772  
         C         C         0.78185   0.35195   0.22948   -0.131922           
         C         C         0.65015   0.42525   0.28389   -0.132976           
         C         C         0.57053   0.22276   0.21715   -0.138084           
         C         C         0.74832   0.33797   0.24039   -0.098876           
         C         C         0.66336   0.40463   0.28885   -0.106158           
         C         C         0.59152   0.25514   0.22759   -0.094091           
         H         H         0.25926   0.59592   0.21152   0.110741  
         H         H         0.41329   0.66187   0.27922   0.114061  
         H         H         0.33991   0.73934   0.30830   0.112789  
         H         H         0.19870   0.57234   0.21814   0.113876  
         H         H         0.43538   0.62354   0.28318   0.116214  
         H         H         0.37579   0.80052   0.29810   0.115502  
         H         H         0.21406   0.65920   0.31900   0.106508  
         H         H         0.33819   0.54998   0.20239   0.103859  
         H         H         0.45826   0.79753   0.19822   0.102435  
         H         H         0.27413   0.68396   0.29905   0.113254  
         H         H         0.31615   0.58787   0.19969   0.113982  
         H         H         0.42285   0.73599   0.21585   0.111906  
         H         H         0.74579   0.40572   0.26363   0.112577  
         H         H         0.59372   0.33868   0.21363   0.112584  
         H         H         0.66377   0.25286   0.27120   0.111964  
         H         H         0.80625   0.43034   0.24946   0.114690  
         H         H         0.57019   0.37668   0.19925   0.116360  
         H         H         0.62553   0.19396   0.25482   0.113361  
         H         H         0.79182   0.33703   0.21682   0.107162  
         H         H         0.66578   0.44916   0.30763   0.106000  
         H         H         0.54434   0.21436   0.20048   0.103016  
         H         H         0.73178   0.31231   0.23654   0.112683  
         H         H         0.68936   0.41227   0.31307   0.117273  
         H         H         0.58244   0.27247   0.22141   0.114163  
         N         N         0.14163   0.57598   0.73648   -0.298714           
         N         N         0.42464   0.57076   0.75392   -0.285130           
         N         N         0.43114   0.85464   0.77461   -0.282602           
         N         N         0.85284   0.42707   0.77547   -0.290008           
         N         N         0.56437   0.42583   0.72754   -0.276455           
         N         N         0.57339   0.14425   0.73554   -0.284514           
         N         N         0.00568   0.51453   0.76645   -0.140538           
         N         N         0.47987   0.49025   0.75963   -0.147199           
         N         N         0.51221   0.98903   0.78074   -0.145226           
         N         N         0.98903   0.48463   0.75375   -0.143442           
         N         N         0.51050   0.50659   0.72932   -0.141586           
         N         N         0.49735   0.00544   0.77826   -0.140496           
         C         C         0.16179   0.60457   0.76155   0.066822  
         C         C         0.10789   0.56224   0.74294   0.204690  
         C         C         0.09171   0.57704   0.77429   -0.165399           
         C         C         0.05803   0.56051   0.78035   -0.132854           
         C         C         0.03949   0.52865   0.75657   0.163508  
         C         C         0.05540   0.51355   0.72611   -0.135914           
         C         C         0.08904   0.53035   0.71866   -0.140366           
         C         C         0.39368   0.56141   0.74407   0.065864  
         C         C         0.43663   0.54919   0.75597   0.205673  
         C         C         0.41790   0.51654   0.73897   -0.171037           
         C         C         0.43308   0.49785   0.74283   -0.134186           
         C         C         0.46735   0.51127   0.76017   0.167517  
         C         C         0.48619   0.54383   0.77665   -0.131271           
         C         C         0.47088   0.56207   0.77588   -0.130907           
         C         C         0.44038   0.83761   0.73399   0.075481  
         C         C         0.45260   0.88796   0.77383   0.207710  
         C         C         0.48665   0.90024   0.80824   -0.182757           
         C         C         0.50558   0.93386   0.80760   -0.133702           
         C         C         0.49110   0.95564   0.77676   0.161404  
         C         C         0.45708   0.94325   0.74477   -0.129295           
         C         C         0.43823   0.90980   0.74569   -0.138593           
         C         C         0.83258   0.40276   0.71708   0.070201  
         C         C         0.88658   0.44041   0.76721   0.204116  
         C         C         0.90195   0.42285   0.75358   -0.172336           
         C         C         0.93573   0.43836   0.74842   -0.130998           
         C         C         0.95509   0.47149   0.75938   0.158287  
         C         C         0.93992   0.48891   0.77607   -0.135612           
         C         C         0.90621   0.47339   0.78109   -0.142866           
         C         C         0.59515   0.43415   0.75529   0.069197  
         C         C         0.55215   0.44681   0.72864   0.216421  
         C         C         0.56962   0.48427   0.67073   -0.175760           
         C         C         0.55517   0.50295   0.67463   -0.128438           
         C         C         0.52291   0.48498   0.73386   0.159512  
         C         C         0.50514   0.44764   0.78803   -0.125188           
         C         C         0.51959   0.42904   0.78477   -0.146391           
         C         C         0.56144   0.16486   0.71597   0.072492  
         C         C         0.55337   0.11029   0.74049   0.203586  
         C         C         0.52029   0.09001   0.79011   -0.175253           
         C         C         0.50273   0.05556   0.80133   -0.134876           
         C         C         0.51773   0.03996   0.76780   0.157291  
         C         C         0.55085   0.05988   0.72042   -0.132703           
         C         C         0.56825   0.09447   0.70678   -0.137569           
         H         H         0.15411   0.62056   0.78435   0.070060  
         H         H         0.10535   0.60111   0.79715   0.108104  
         H         H         0.10200   0.51963   0.69283   0.117720  
         H         H         0.04511   0.57123   0.80666   0.116613  
         H         H         0.04095   0.48931   0.70484   0.119514  
         H         H         0.37492   0.53650   0.73386   0.057371  
         H         H         0.39148   0.50568   0.72340   0.108336  
         H         H         0.48473   0.58670   0.79428   0.119102  
         H         H         0.41910   0.47269   0.73003   0.112431  
         H         H         0.51251   0.55359   0.79486   0.113903  
         H         H         0.46513   0.84922   0.68715   0.059676  
         H         H         0.49795   0.88314   0.83786   0.108425  
         H         H         0.41189   0.89927   0.72392   0.122112  
         H         H         0.53185   0.94397   0.83335   0.116455  
         H         H         0.44627   0.96032   0.72183   0.114483  
         H         H         0.84063   0.39250   0.65264   0.066892  
         H         H         0.88746   0.39703   0.74722   0.113069  
         H         H         0.89395   0.48604   0.79659   0.120272  
         H         H         0.94801   0.42542   0.73582   0.116581  
         H         H         0.95521   0.51423   0.78696   0.117835  
         H         H         0.61255   0.45674   0.79028   0.065192  
         H         H         0.59399   0.49856   0.61649   0.109624  
         H         H         0.50644   0.40028   0.82526   0.119433  
         H         H         0.56819   0.53185   0.62920   0.115461  
         H         H         0.48007   0.43435   0.82976   0.112788  
         H         H         0.53523   0.15784   0.69068   0.061109  
         H         H         0.50889   0.10074   0.82824   0.110975  
         H         H         0.59366   0.11054   0.66713   0.121856  
         H         H         0.47737   0.03944   0.84198   0.120588  
         H         H         0.56199   0.04782   0.69144   0.113602  
         C         C         0.35224   0.69857   0.75842   0.372488  
         C         C         0.30034   0.65579   0.75716   0.368954  
         C         C         0.34335   0.64800   0.74782   0.368561  
         C         C         0.64283   0.30008   0.75323   0.369540  
         C         C         0.69394   0.34376   0.76032   0.376407  
         C         C         0.64947   0.35016   0.75966   0.368171  
         N         N         0.36502   0.67964   0.75174   -0.407555           
         N         N         0.32005   0.68800   0.75956   -0.412730           
         N         N         0.31073   0.63479   0.75128   -0.410058           
         N         N         0.62873   0.31856   0.75254   -0.406364           
         N         N         0.67529   0.31149   0.75777   -0.409401           
         N         N         0.68222   0.36394   0.76360   -0.410403           
         C         C         0.37497   0.73349   0.76156   0.005510  
         C         C         0.26480   0.64271   0.75947   0.006320  
         C         C         0.35635   0.62632   0.74156   0.004580  
         C         C         0.24311   0.60922   0.75665   -0.095600           
         C         C         0.39020   0.63672   0.76256   -0.091339           
         C         C         0.36347   0.75313   0.78597   -0.101578           
         C         C         0.20970   0.59686   0.75722   -0.108641           
         C         C         0.40259   0.61581   0.76415   -0.106896           
         C         C         0.38471   0.78685   0.77869   -0.100725           
         C         C         0.19689   0.61755   0.76045   0.057904  
         C         C         0.38142   0.58396   0.74280   0.064044  
         C         C         0.41796   0.80204   0.74438   0.068074  
         C         C         0.21864   0.65090   0.76458   -0.129893           
         C         C         0.34767   0.57397   0.71913   -0.136865           
         C         C         0.42944   0.78222   0.72194   -0.132687           
         C         C         0.25216   0.66341   0.76324   -0.101709           
         C         C         0.33520   0.59479   0.71865   -0.098971           
         C         C         0.40826   0.74815   0.73222   -0.093689           
         C         C         0.62162   0.26537   0.74414   0.010582  
         C         C         0.72958   0.35840   0.75460   0.003568  
         C         C         0.63552   0.37175   0.75835   0.008567  
         C         C         0.75028   0.39168   0.76116   -0.100282           
         C         C         0.60179   0.36164   0.72487   -0.095464           
         C         C         0.63564   0.24450   0.75578   -0.102643           
         C         C         0.78378   0.40596   0.75263   -0.110369           
         C         C         0.58852   0.38214   0.71926   -0.108611           
         C         C         0.61626   0.21175   0.74845   -0.098187           
         C         C         0.79751   0.38778   0.73190   0.061283  
         C         C         0.60858   0.41309   0.75017   0.061675  
         C         C         0.58216   0.19904   0.72618   0.068229  
         C         C         0.77677   0.35474   0.72322   -0.127928           
         C         C         0.64224   0.42303   0.78447   -0.131955           
         C         C         0.56815   0.21997   0.71366   -0.135645           
         C         C         0.74328   0.33983   0.73840   -0.101710           
         C         C         0.65569   0.40277   0.78752   -0.104957           
         C         C         0.58759   0.25269   0.72345   -0.095899           
         H         H         0.25321   0.59373   0.75109   0.112380  
         H         H         0.40603   0.66116   0.78066   0.114665  
         H         H         0.33769   0.74133   0.80966   0.112908  
         H         H         0.19272   0.57128   0.75291   0.113568  
         H         H         0.42855   0.62303   0.78416   0.118569  
         H         H         0.37636   0.80218   0.79997   0.113744  
         H         H         0.20898   0.66674   0.77107   0.106565  
         H         H         0.33154   0.54976   0.69853   0.103587  
         H         H         0.45507   0.79412   0.69342   0.104040  
         H         H         0.26906   0.68895   0.76857   0.113808  
         H         H         0.30919   0.58726   0.69959   0.113001  
         H         H         0.41678   0.73283   0.71242   0.112781  
         H         H         0.73936   0.40566   0.77445   0.111405  
         H         H         0.58662   0.33762   0.70196   0.112539  
         H         H         0.66196   0.25471   0.77126   0.112236  
         H         H         0.80000   0.43143   0.75976   0.114744  
         H         H         0.56258   0.37491   0.69265   0.115179  
         H         H         0.62672   0.19536   0.75701   0.113757  
         H         H         0.78724   0.34079   0.70501   0.106546  
         H         H         0.65768   0.44637   0.81350   0.105665  
         H         H         0.54178   0.21022   0.69666   0.102319  
         H         H         0.72722   0.31426   0.73260   0.114069  
         H         H         0.68163   0.41012   0.81496   0.114746  
         H         H         0.57701   0.26886   0.71591   0.112471 

