
##########################################################################
#               Crystallographic Information Format file
#               Produced by PyCifRW module
#
#  This is a CIF file.  CIF has been adopted by the International
#  Union of Crystallography as the standard for data archiving and
#  transmission.
#
#  For information on this file format, follow the CIF links at
#  http://www.iucr.org
##########################################################################

data_image0

_cell_length_a                          24.6434
_cell_length_b                          24.77
_cell_length_c                          9.01937
_cell_angle_alpha                       63.3832
_cell_angle_beta                        93.0311
_cell_angle_gamma                       81.1717
_symmetry_space_group_name_H-M          'P 1'
_space_group_name_Hall                  'P 1'
loop_
  _atom_site_type_symbol
  _atom_site_label
  _atom_site_fract_x
  _atom_site_fract_y
  _atom_site_fract_z
  _atom_site_charge
         C         C         0.48486   0.48892   0.20740   -0.010630           
         C         C         0.01603   0.00778   0.23338   -0.016856           
         C         C         0.50667   0.53164   0.24942   -0.004658           
         C         C         0.96813   0.97971   0.25371   -0.007796           
         C         C         0.56303   0.57566   0.36316   -0.159099           
         C         C         0.90835   0.91082   0.29463   -0.157546           
         C         C         0.42733   0.44662   0.09132   -0.159936           
         C         C         0.07058   0.08307   0.13990   -0.155020           
         C         C         0.55590   0.52288   0.34793   -0.168399           
         C         C         0.96371   0.91915   0.29877   -0.166743           
         C         C         0.43710   0.49968   0.10038   -0.170608           
         C         C         0.01703   0.06998   0.13972   -0.161179           
         C         C         0.51966   0.62603   0.27677   -0.028626           
         C         C         0.86934   0.96464   0.24736   -0.037430           
         C         C         0.46732   0.39400   0.19051   -0.024044           
         C         C         0.11195   0.03153   0.23437   -0.013897           
         C         C         0.60522   0.95496   0.19777   0.186612  
         C         C         0.54339   0.89586   0.20096   0.181752  
         C         C         0.37282   0.06509   0.27685   0.177296  
         C         C         0.43465   0.12507   0.27007   0.177898  
         C         C         0.62937   0.91257   0.14030   -0.187056           
         C         C         0.59195   0.87635   0.14349   -0.182741           
         C         C         0.34470   0.11601   0.29675   -0.194257           
         C         C         0.38219   0.15226   0.29345   -0.190569           
         H         H         0.66927   0.91171   0.09609   0.128669  
         H         H         0.59627   0.84096   0.10339   0.131915  
         H         H         0.30168   0.12217   0.31611   0.129773  
         H         H         0.37531   0.19300   0.31140   0.134366  
         N         N         0.54630   0.06013   0.25211   -0.414838           
         N         N         0.43423   0.95396   0.25223   -0.404280           
         C         C         0.60276   0.04497   0.25707   0.185727  
         C         C         0.44460   0.89797   0.25108   0.183268  
         C         C         0.37957   0.96330   0.27558   0.187233  
         C         C         0.53743   0.11303   0.27008   0.193197  
         C         C         0.63048   0.08725   0.28949   -0.195459           
         C         C         0.39570   0.87013   0.28051   -0.196706           
         C         C         0.35490   0.91143   0.29201   -0.188814           
         C         C         0.58984   0.13099   0.29011   -0.184511           
         H         H         0.67478   0.08356   0.31169   0.123686  
         H         H         0.39289   0.82545   0.29119   0.124784  
         H         H         0.31242   0.90729   0.30928   0.121584  
         H         H         0.59544   0.17055   0.30620   0.123197  
         C         C         0.63071   0.99784   0.22411   -0.074688           
         C         C         0.49544   0.87005   0.22597   -0.060798           
         C         C         0.34973   0.01612   0.27955   -0.069244           
         C         C         0.48469   0.14667   0.26548   -0.068059           
         C         C         0.69122   0.99053   0.22020   0.075498  
         C         C         0.50140   0.80850   0.23352   0.072013  
         C         C         0.28858   0.02214   0.27854   0.082119  
         C         C         0.47986   0.20944   0.25065   0.078552  
         C         C         0.71742   0.04082   0.13823   -0.113296           
         C         C         0.54647   0.76113   0.33702   -0.124334           
         C         C         0.25210   0.07133   0.14464   -0.138590           
         C         C         0.51315   0.22229   0.35758   -0.131488           
         C         C         0.26488   0.97792   0.40438   -0.123869           
         C         C         0.44143   0.25953   0.12413   -0.133512           
         C         C         0.72575   0.93143   0.30347   -0.122275           
         C         C         0.46269   0.79386   0.14413   -0.123421           
         H         H         0.69195   0.08648   0.06354   0.110794  
         H         H         0.57611   0.77064   0.41140   0.110315  
         H         H         0.26908   0.10665   0.04622   0.109705  
         H         H         0.54128   0.18464   0.46132   0.100442  
         H         H         0.29225   0.94094   0.51201   0.106268  
         H         H         0.41602   0.25155   0.03645   0.105874  
         H         H         0.70701   0.89177   0.37090   0.109187  
         H         H         0.42865   0.82975   0.05871   0.102939  
         C         C         0.77482   0.03271   0.14596   -0.135024           
         C         C         0.55202   0.70205   0.35288   -0.138293           
         C         C         0.19515   0.07429   0.13186   -0.127403           
         C         C         0.50938   0.28174   0.33771   -0.138956           
         C         C         0.20783   0.98105   0.39336   -0.140129           
         C         C         0.43710   0.31904   0.10483   -0.139007           
         C         C         0.78289   0.92304   0.30771   -0.126115           
         C         C         0.46858   0.73512   0.15745   -0.142254           
         H         H         0.79341   0.07271   0.07944   0.107502  
         H         H         0.58605   0.66630   0.43963   0.108811  
         H         H         0.16849   0.11108   0.02206   0.104205  
         H         H         0.53495   0.28906   0.42668   0.104596  
         H         H         0.19086   0.94662   0.49445   0.105374  
         H         H         0.40810   0.35649   0.00260   0.110478  
         H         H         0.80793   0.87686   0.37732   0.108444  
         H         H         0.43888   0.72651   0.08075   0.105634  
         C         C         0.80919   0.97370   0.23214   0.070788  
         C         C         0.51318   0.68745   0.26272   0.059900  
         C         C         0.17160   0.02860   0.25489   0.063867  
         C         C         0.47127   0.33181   0.21108   0.055470  
         H         H         0.59874   0.57704   0.43642   0.127777  
         H         H         0.58537   0.47924   0.40754   0.127043  
         H         H         0.89676   0.86722   0.31989   0.128046  
         H         H         -0.00048  0.88274   0.32827   0.130932  
         H         H         0.39206   0.44643   0.01423   0.127652  
         H         H         0.41081   0.54511   0.02986   0.123629  
         H         H         0.07937   0.12897   0.07328   0.125445  
         H         H         0.97968   0.10416   0.07085   0.125429  
         S         S         0.51751   0.41173   0.29599   0.112945  
         S         S         0.08298   0.96590   0.32399   0.096889  
         S         S         0.46934   0.60643   0.17710   0.105681  
         S         S         0.90264   0.02551   0.21215   0.104670  
         N         N         0.55267   0.94442   0.22807   -0.257482           
         N         N         0.42714   0.07220   0.26265   -0.255352           
         H         H         0.52422   0.96941   0.26330   0.275973  
         H         H         0.45743   0.04329   0.24513   0.271219  
         C         C         0.49662   0.47218   0.73139   -0.006215           
         C         C         0.03371   0.01564   0.75505   -0.009550           
         C         C         0.51849   0.51516   0.77171   -0.010886           
         C         C         0.98476   0.99194   0.74102   -0.014066           
         C         C         0.57574   0.55796   0.88680   -0.161948           
         C         C         0.92370   0.94011   0.67409   -0.161345           
         C         C         0.43959   0.42734   0.62282   -0.161027           
         C         C         0.09303   0.08311   0.73623   -0.165324           
         C         C         0.56747   0.50539   0.87251   -0.170796           
         C         C         0.97858   0.94945   0.68336   -0.167869           
         C         C         0.44780   0.48099   0.63127   -0.167058           
         C         C         0.03763   0.07511   0.72410   -0.165021           
         C         C         0.53343   0.60919   0.79761   -0.021241           
         C         C         0.88710   0.97469   0.72589   -0.022185           
         C         C         0.48175   0.37624   0.71603   -0.031301           
         C         C         0.13201   0.02985   0.77923   -0.022106           
         C         C         0.62791   0.93498   0.73388   0.183302  
         C         C         0.56554   0.87549   0.73682   0.176803  
         C         C         0.39419   0.04425   0.81472   0.186189  
         C         C         0.45536   0.10397   0.81199   0.182986  
         C         C         0.65717   0.87973   0.73692   -0.191734           
         C         C         0.61935   0.84459   0.73434   -0.192009           
         C         C         0.36732   0.09069   0.85431   -0.189049           
         C         C         0.40449   0.12692   0.85307   -0.183180           
         H         H         0.70154   0.86832   0.74101   0.132269  
         H         H         0.62763   0.80103   0.73090   0.132393  
         H         H         0.32540   0.09401   0.88391   0.122471  
         H         H         0.39825   0.16503   0.88241   0.131980  
         N         N         0.56589   0.04419   0.77005   -0.404530           
         N         N         0.45389   0.93889   0.76100   -0.409713           
         C         C         0.61951   0.03687   0.73648   0.188263  
         C         C         0.46311   0.88536   0.74659   0.191047  
         C         C         0.39836   0.95015   0.77420   0.185760  
         C         C         0.55455   0.10121   0.76542   0.185534  
         C         C         0.64190   0.09182   0.70295   -0.186226           
         C         C         0.41179   0.86256   0.74880   -0.182573           
         C         C         0.37143   0.90343   0.76337   -0.199536           
         C         C         0.60174   0.13153   0.72225   -0.201373           
         H         H         0.68192   0.09971   0.66353   0.127342  
         H         H         0.40717   0.82077   0.74342   0.123460  
         H         H         0.32811   0.90135   0.77141   0.119739  
         H         H         0.60312   0.17766   0.70312   0.123827  
         C         C         0.65056   0.98436   0.73230   -0.069185           
         C         C         0.51561   0.85352   0.74301   -0.067811           
         C         C         0.37003   -0.00122  0.79941   -0.067089           
         C         C         0.50354   0.12933   0.78932   -0.065611           
         C         C         0.71118   0.98080   0.73104   0.070124  
         C         C         0.51979   0.79100   0.75634   0.078720  
         C         C         0.30912   0.00584   0.80197   0.083188  
         C         C         0.49774   0.19153   0.77752   0.072276  
         C         C         0.74068   0.96179   0.62746   -0.134914           
         C         C         0.55772   0.74009   0.88171   -0.133941           
         C         C         0.27403   0.06074   0.68357   -0.133938           
         C         C         0.53628   0.20655   0.86663   -0.121997           
         C         C         0.28469   0.95959   0.91815   -0.125584           
         C         C         0.45358   0.23908   0.66924   -0.125571           
         C         C         0.74210   0.99769   0.83400   -0.129527           
         C         C         0.48535   0.77957   0.64867   -0.132382           
         H         H         0.71846   0.95110   0.54045   0.092103  
         H         H         0.58275   0.74665   0.97293   0.106746  
         H         H         0.29258   0.09653   0.59239   0.105571  
         H         H         0.56972   0.17050   0.95543   0.106967  
         H         H         0.31140   0.91805   0.01466   0.106422  
         H         H         0.42430   0.22921   0.59478   0.108934  
         H         H         0.72143   0.01113   0.91881   0.093270  
         H         H         0.45631   0.81781   0.54925   0.100795  
         C         C         0.79740   0.95891   0.62840   -0.136025           
         C         C         0.56182   0.68140   0.89558   -0.137724           
         C         C         0.21679   0.06861   0.67792   -0.134202           
         C         C         0.53112   0.26610   0.84711   -0.141928           
         C         C         0.22738   0.96752   0.91412   -0.143929           
         C         C         0.44850   0.29872   0.64866   -0.139236           
         C         C         0.79848   0.99718   0.83065   -0.146528           
         C         C         0.48895   0.72087   0.66305   -0.138551           
         H         H         0.81820   0.94479   0.54493   0.095186  
         H         H         0.59025   0.64304   -0.00276  0.106556  
         H         H         0.19029   0.11011   0.58020   0.109852  
         H         H         0.56089   0.27548   0.92174   0.107085  
         H         H         0.20928   0.93196   0.00816   0.109593  
         H         H         0.41503   0.33443   0.55904   0.109054  
         H         H         0.82048   0.01078   0.91185   0.091617  
         H         H         0.46274   0.71461   0.57328   0.105035  
         C         C         0.82779   0.97706   0.72915   0.073146  
         C         C         0.52793   0.67039   0.78495   0.053564  
         C         C         0.19229   0.02181   0.79259   0.067730  
         C         C         0.48733   0.31393   0.73710   0.060940  
         H         H         0.61161   0.55898   0.96004   0.128098  
         H         H         0.59592   0.46110   0.93420   0.125256  
         H         H         0.91085   0.90920   0.62984   0.122845  
         H         H         0.01257   0.92797   0.64338   0.116924  
         H         H         0.40400   0.42580   0.54965   0.128063  
         H         H         0.41953   0.52528   0.56550   0.125215  
         H         H         0.10474   0.12637   0.71509   0.122474  
         H         H         0.00122   0.11161   0.68842   0.126026  
         S         S         0.53214   0.39629   0.81408   0.105283  
         S         S         0.09950   0.96917   0.80524   0.095162  
         S         S         0.48302   0.59084   0.69483   0.114802  
         S         S         0.92191   0.01881   0.78866   0.098863  
         N         N         0.57261   0.93036   0.73339   -0.260744           
         N         N         0.44767   0.05318   0.79377   -0.256460           
         H         H         0.54164   0.96104   0.74157   0.272565  
         H         H         0.47780   0.02567   0.77097   0.273554 

