
##########################################################################
#               Crystallographic Information Format file
#               Produced by PyCifRW module
#
#  This is a CIF file.  CIF has been adopted by the International
#  Union of Crystallography as the standard for data archiving and
#  transmission.
#
#  For information on this file format, follow the CIF links at
#  http://www.iucr.org
##########################################################################

data_image0

_cell_length_a                          37.8375
_cell_length_b                          37.9197
_cell_length_c                          10.8632
_cell_angle_alpha                       90.9125
_cell_angle_beta                        90.9506
_cell_angle_gamma                       120.02
_symmetry_space_group_name_H-M          'P 1'
_space_group_name_Hall                  'P 1'
loop_
  _atom_site_type_symbol
  _atom_site_label
  _atom_site_fract_x
  _atom_site_fract_y
  _atom_site_fract_z
  _atom_site_charge
         C         C         0.48243   0.48057   0.25101   -0.035621           
         C         C         0.51957   -0.00068  0.24913   -0.036873           
         C         C         0.00099   0.51854   0.25357   -0.036043           
         C         C         0.51807   0.51710   0.25306   -0.034189           
         C         C         0.48353   -0.00062  0.24788   -0.032457           
         C         C         0.00078   0.48243   0.25075   -0.031912           
         C         C         0.44208   0.47826   0.25580   0.076644  
         C         C         0.52116   0.96094   0.25340   0.076304  
         C         C         0.03939   0.55862   0.25800   0.076921  
         C         C         0.55850   0.51957   0.25769   0.076812  
         C         C         0.48216   0.03802   0.25127   0.084159  
         C         C         0.96207   0.44262   0.25579   0.082915  
         C         C         0.41214   0.45679   0.16299   -0.141361           
         C         C         0.54162   0.95232   0.16131   -0.143658           
         C         C         0.04594   0.58711   0.16721   -0.141775           
         C         C         0.58648   0.53961   0.16470   -0.140617           
         C         C         0.47071   0.05070   0.14452   -0.143822           
         C         C         0.94813   0.41611   0.15205   -0.144899           
         C         C         0.37536   0.45695   0.16163   -0.064708           
         C         C         0.54147   0.91548   0.15840   -0.062634           
         C         C         0.08262   0.62396   0.16500   -0.061783           
         C         C         0.62329   0.53960   0.16222   -0.064011           
         C         C         0.47160   0.08787   0.14373   -0.060621           
         C         C         0.91133   0.37939   0.15392   -0.059610           
         C         C         0.36628   0.47663   0.25673   -0.221575           
         C         C         0.52281   0.88700   0.25148   -0.223078           
         C         C         0.11307   0.63456   0.25739   -0.221735           
         C         C         0.63426   0.52151   0.25635   -0.220515           
         C         C         0.48176   0.11254   0.25156   -0.224451           
         C         C         0.88844   0.36688   0.26170   -0.226103           
         C         C         0.39559   0.49643   0.35265   -0.061190           
         C         C         0.50402   0.89664   0.34682   -0.063294           
         C         C         0.10552   0.60682   0.35171   -0.063028           
         C         C         0.60708   0.50342   0.35290   -0.061197           
         C         C         0.49116   0.09867   0.35987   -0.053844           
         C         C         0.90332   0.39293   0.36671   -0.055276           
         C         C         0.43311   0.49784   0.35085   -0.136664           
         C         C         0.50252   0.93265   0.34642   -0.137812           
         C         C         0.06959   0.56916   0.35059   -0.137803           
         C         C         0.56948   0.50182   0.35229   -0.137777           
         C         C         0.49201   0.06229   0.35906   -0.145766           
         C         C         0.93921   0.43058   0.36297   -0.145642           
         C         C         0.48180   0.44109   0.24455   0.082343  
         C         C         0.55972   0.03746   0.24597   0.083199  
         C         C         0.96267   0.52034   0.25195   0.083499  
         C         C         0.51915   0.55675   0.24984   0.084622  
         C         C         0.44324   0.96137   0.24249   0.083540  
         C         C         0.03849   0.47976   0.24434   0.081195  
         C         C         0.46026   0.41126   0.33191   -0.145371           
         C         C         0.59057   0.04478   0.33394   -0.141431           
         C         C         0.95689   0.54417   0.34126   -0.144080           
         C         C         0.54176   0.58709   0.34065   -0.147260           
         C         C         0.41348   0.95546   0.32855   -0.145205           
         C         C         0.04474   0.45505   0.32710   -0.145189           
         C         C         0.46074   0.37477   0.33036   -0.050557           
         C         C         0.62782   0.08108   0.33559   -0.048548           
         C         C         0.92044   0.54483   0.34401   -0.046910           
         C         C         0.54185   0.62385   0.34178   -0.048837           
         C         C         0.37629   0.91912   0.32783   -0.049503           
         C         C         0.08101   0.45403   0.32799   -0.050413           
         C         C         0.48185   0.36626   0.23943   -0.237697           
         C         C         0.63611   0.11087   0.24704   -0.238865           
         C         C         0.88903   0.52280   0.25498   -0.238661           
         C         C         0.52065   0.63221   0.24938   -0.238277           
         C         C         0.36690   0.88813   0.23826   -0.239643           
         C         C         0.11168   0.47639   0.24326   -0.238948           
         C         C         0.50241   0.39575   0.15008   -0.051511           
         C         C         0.60580   0.10256   0.15578   -0.047456           
         C         C         0.89572   0.50045   0.16250   -0.047104           
         C         C         0.49938   0.60234   0.15581   -0.047924           
         C         C         0.39611   0.89497   0.14891   -0.047291           
         C         C         0.10430   0.49935   0.15623   -0.048137           
         C         C         0.50250   0.43252   0.15295   -0.138540           
         C         C         0.56825   0.06666   0.15580   -0.142560           
         C         C         0.93173   0.49900   0.16166   -0.142681           
         C         C         0.49830   0.56512   0.15696   -0.141707           
         C         C         0.43375   0.93077   0.15196   -0.139154           
         C         C         0.06856   0.50132   0.15762   -0.139465           
         B         B         0.32528   0.47646   0.25529   0.611116  
         B         B         0.52291   0.84629   0.24955   0.608037  
         B         B         0.15370   0.67546   0.25396   0.610844  
         B         B         0.67509   0.52153   0.25509   0.612419  
         B         B         0.48242   0.15357   0.25006   0.608677  
         B         B         0.84818   0.32568   0.26191   0.606298  
         O         O         0.29575   0.45945   0.34578   -0.341490           
         O         O         0.53849   0.83342   0.34591   -0.339947           
         O         O         0.16782   0.70621   0.34582   -0.339333           
         O         O         0.70610   0.54093   0.34580   -0.338363           
         O         O         0.46194   0.16522   0.33334   -0.338325           
         O         O         0.83706   0.29610   0.35202   -0.339434           
         O         O         0.31266   0.49333   0.16240   -0.341042           
         O         O         0.50718   0.81719   0.15238   -0.339378           
         O         O         0.18143   0.68661   0.15814   -0.341412           
         O         O         0.68599   0.50207   0.16485   -0.339173           
         O         O         0.50326   0.18403   0.16417   -0.339289           
         O         O         0.81772   0.31268   0.16898   -0.338684           
         C         C         0.26433   0.46597   0.30758   0.160925  
         C         C         0.53222   0.79558   0.30756   0.159545  
         C         C         0.20499   0.73703   0.30568   0.157550  
         C         C         0.73692   0.53358   0.31043   0.157122  
         C         C         0.46979   0.20328   0.29696   0.160431  
         C         C         0.79901   0.26431   0.31352   0.159785  
         B         B         0.48216   0.32592   0.23906   0.582320  
         B         B         0.67661   0.15148   0.25018   0.582401  
         B         B         0.84838   0.52256   0.25716   0.582388  
         B         B         0.52081   0.67276   0.25036   0.581830  
         B         B         0.32627   0.84786   0.24014   0.582723  
         B         B         0.15218   0.47625   0.24622   0.582025  
         O         O         0.50366   0.31486   0.15743   -0.332793           
         O         O         0.68729   0.18197   0.16310   -0.333537           
         O         O         0.81648   0.50158   0.16941   -0.333170           
         O         O         0.50369   0.68497   0.15623   -0.333176           
         O         O         0.31279   0.81637   0.15045   -0.334339           
         O         O         0.18233   0.49442   0.15747   -0.333537           
         O         O         0.46066   0.29481   0.32253   -0.333886           
         O         O         0.70785   0.16351   0.34045   -0.334262           
         O         O         0.83775   0.54287   0.34550   -0.332643           
         O         O         0.53817   0.70275   0.34508   -0.333303           
         O         O         0.29773   0.83723   0.33363   -0.334307           
         O         O         0.16438   0.45845   0.33788   -0.332893           
         C         C         0.49541   0.27653   0.19214   0.160118  
         C         C         0.72570   0.21302   0.20018   0.162536  
         C         C         0.78597   0.50935   0.20390   0.161545  
         C         C         0.51113   0.72328   0.19276   0.162939  
         C         C         0.27529   0.78603   0.18905   0.162095  
         C         C         0.21332   0.48723   0.19439   0.161322  
         C         C         0.50965   0.25237   0.13942   -0.272789           
         C         C         0.74976   0.24972   0.14234   -0.275436           
         C         C         0.74822   0.49572   0.14470   -0.271247           
         C         C         0.50080   0.74859   0.12901   -0.272984           
         C         C         0.24937   0.74862   0.13011   -0.271519           
         C         C         0.24988   0.49877   0.13573   -0.272713           
         C         C         0.46928   0.26441   0.29226   0.161789  
         C         C         0.73807   0.20203   0.30849   0.161419  
         C         C         0.79885   0.53438   0.31081   0.161417  
         C         C         0.53182   0.73396   0.30774   0.161381  
         C         C         0.26622   0.79862   0.30048   0.162537  
         C         C         0.20247   0.46550   0.30389   0.161513  
         C         C         0.49531   0.21498   0.19548   0.160440  
         C         C         0.78708   0.27469   0.20328   0.161184  
         C         C         0.72445   0.50942   0.20191   0.158601  
         C         C         0.51264   0.78545   0.19105   0.158714  
         C         C         0.21355   0.72487   0.19284   0.160352  
         C         C         0.27479   0.48694   0.19695   0.159578  
         C         C         0.22751   0.45387   0.36519   -0.271281           
         C         C         0.54316   0.77057   0.37048   -0.271746           
         C         C         0.23067   0.77461   0.36402   -0.272112           
         C         C         0.77484   0.54760   0.36897   -0.271560           
         C         C         0.45528   0.22724   0.34916   -0.273750           
         C         C         0.77521   0.22728   0.37029   -0.272048           
         H         H         0.41842   0.44100   0.08953   0.106744  
         H         H         0.35339   0.44151   0.08589   0.108840  
         H         H         0.38924   0.51134   0.42860   0.106702  
         H         H         0.45605   0.51437   0.42326   0.098390  
         H         H         0.44390   0.41732   0.40297   0.107820  
         H         H         0.44489   0.35262   0.40096   0.109763  
         H         H         0.51841   0.38971   0.07775   0.113882  
         H         H         0.51865   0.45500   0.08364   0.100518  
         H         H         0.52944   0.26150   0.06100   0.167170  
         H         H         0.21931   0.43738   0.45035   0.163992  
         H         H         0.55677   0.97432   0.08986   0.110203  
         H         H         0.55633   0.90896   0.08361   0.107179  
         H         H         0.49002   0.87559   0.42138   0.109479  
         H         H         0.48681   0.93907   0.41869   0.101440  
         H         H         0.58470   0.02207   0.40277   0.108501  
         H         H         0.65080   0.08667   0.40665   0.108949  
         H         H         0.61180   0.12456   0.08443   0.108653  
         H         H         0.54506   0.06086   0.08554   0.098632  
         H         H         0.74059   0.25777   0.05696   0.165431  
         H         H         0.55840   0.77852   0.46051   0.163533  
         H         H         0.02243   0.57971   0.09628   0.105664  
         H         H         0.08760   0.64485   0.09104   0.105791  
         H         H         0.12812   0.61445   0.42586   0.110343  
         H         H         0.06474   0.54758   0.42213   0.100792  
         H         H         0.98093   0.56152   0.41023   0.106756  
         H         H         0.91600   0.56233   0.41633   0.108948  
         H         H         0.87235   0.48414   0.09085   0.109621  
         H         H         0.93632   0.48136   0.09050   0.100083  
         H         H         0.73856   0.47675   0.06129   0.166724  
         H         H         0.22383   0.78402   0.45099   0.165550  
         H         H         0.57857   0.55408   0.09198   0.105576  
         H         H         0.64375   0.55389   0.08653   0.105724  
         H         H         0.61520   0.49006   0.42850   0.107063  
         H         H         0.54826   0.48679   0.42564   0.100241  
         H         H         0.55849   0.58117   0.41209   0.109617  
         H         H         0.55847   0.64645   0.41498   0.109056  
         H         H         0.48352   0.60840   0.08193   0.110574  
         H         H         0.48123   0.54202   0.08564   0.098966  
         H         H         0.48561   0.74064   0.03891   0.164378  
         H         H         0.78455   0.56663   0.45227   0.166831  
         H         H         0.46249   0.03190   0.06056   0.101038  
         H         H         0.46414   0.09775   0.05854   0.105046  
         H         H         0.49854   0.11676   0.44511   0.103507  
         H         H         0.50008   0.05240   0.44305   0.097810  
         H         H         0.42014   0.97918   0.39784   0.106278  
         H         H         0.35417   0.91438   0.39775   0.108113  
         H         H         0.38924   0.87196   0.07693   0.110628  
         H         H         0.45627   0.93544   0.08376   0.099605  
         H         H         0.25616   0.73919   0.04308   0.165219  
         H         H         0.43546   0.21813   0.42749   0.167361  
         H         H         0.96559   0.42503   0.06830   0.104441  
         H         H         0.90032   0.36002   0.07098   0.105948  
         H         H         0.88654   0.38397   0.45170   0.103289  
         H         H         0.95008   0.45079   0.44407   0.099634  
         H         H         0.02137   0.43761   0.39313   0.111015  
         H         H         0.08586   0.43584   0.39546   0.108739  
         H         H         0.12696   0.51589   0.08743   0.110465  
         H         H         0.06366   0.51980   0.09154   0.100856  
         H         H         0.25792   0.51494   0.04993   0.165321  
         H         H         0.78428   0.21920   0.45576   0.165018  
         C         C         0.48175   0.48383   0.75153   -0.033179           
         C         C         0.51494   0.00041   0.74750   -0.032447           
         C         C         0.99850   0.51692   0.75153   -0.031743           
         C         C         0.51740   0.52030   0.75267   -0.035903           
         C         C         0.47919   0.00105   0.74988   -0.038513           
         C         C         0.99819   0.48077   0.74956   -0.038077           
         C         C         0.44101   0.48076   0.75525   0.079359  
         C         C         0.51662   0.96215   0.75218   0.076843  
         C         C         0.03731   0.55678   0.75649   0.081965  
         C         C         0.55785   0.52253   0.75752   0.080370  
         C         C         0.47852   0.03990   0.75318   0.074406  
         C         C         0.96007   0.44071   0.75517   0.073664  
         C         C         0.41271   0.46117   0.65718   -0.142833           
         C         C         0.53523   0.95252   0.65670   -0.140440           
         C         C         0.04761   0.58292   0.65666   -0.143616           
         C         C         0.58511   0.54030   0.66121   -0.143357           
         C         C         0.45395   0.04611   0.66776   -0.141990           
         C         C         0.95297   0.40920   0.67068   -0.139807           
         C         C         0.37520   0.45975   0.65532   -0.061845           
         C         C         0.53606   0.91621   0.65643   -0.062118           
         C         C         0.08440   0.61974   0.65796   -0.061654           
         C         C         0.62184   0.54007   0.66006   -0.058524           
         C         C         0.45494   0.08337   0.66441   -0.063367           
         C         C         0.91649   0.37204   0.67026   -0.063980           
         C         C         0.36374   0.47576   0.75485   -0.221989           
         C         C         0.52043   0.88944   0.75512   -0.222660           
         C         C         0.11106   0.63276   0.76205   -0.224007           
         C         C         0.63362   0.52408   0.75852   -0.224640           
         C         C         0.47887   0.11496   0.75068   -0.219799           
         C         C         0.88667   0.36435   0.75794   -0.219207           
         C         C         0.39134   0.49350   0.85584   -0.062681           
         C         C         0.50349   0.90014   0.85330   -0.058137           
         C         C         0.09990   0.60709   0.86357   -0.060213           
         C         C         0.60709   0.50816   0.85772   -0.059328           
         C         C         0.50217   0.10802   0.83910   -0.062721           
         C         C         0.89474   0.39529   0.84604   -0.063061           
         C         C         0.42970   0.49667   0.85473   -0.140084           
         C         C         0.50089   0.93554   0.85053   -0.138560           
         C         C         0.06398   0.56933   0.85977   -0.141534           
         C         C         0.56953   0.50675   0.85610   -0.141926           
         C         C         0.50253   0.07145   0.83894   -0.133738           
         C         C         0.93054   0.43297   0.84355   -0.135495           
         C         C         0.48087   0.44426   0.74713   0.083866  
         C         C         0.55535   0.03808   0.74003   0.084844  
         C         C         0.96059   0.51948   0.75041   0.082736  
         C         C         0.51844   0.55992   0.74976   0.083563  
         C         C         0.43888   0.96287   0.74739   0.082896  
         C         C         0.03652   0.47913   0.74253   0.084390  
         C         C         0.45928   0.41504   0.83598   -0.143977           
         C         C         0.58536   0.04737   0.83278   -0.146146           
         C         C         0.95454   0.54181   0.84420   -0.146857           
         C         C         0.54314   0.59120   0.83594   -0.146354           
         C         C         0.41055   0.95600   0.83943   -0.145417           
         C         C         0.04537   0.45782   0.83130   -0.145847           
         C         C         0.45963   0.37852   0.83694   -0.048853           
         C         C         0.62257   0.08358   0.83132   -0.048506           
         C         C         0.91821   0.54268   0.84873   -0.047543           
         C         C         0.54364   0.62817   0.83680   -0.049364           
         C         C         0.37346   0.91953   0.84082   -0.048976           
         C         C         0.08173   0.45707   0.82846   -0.049533           
         C         C         0.48024   0.36925   0.74635   -0.238752           
         C         C         0.63159   0.11112   0.73499   -0.240463           
         C         C         0.88729   0.52257   0.75688   -0.239301           
         C         C         0.52058   0.63579   0.74885   -0.239184           
         C         C         0.36284   0.88912   0.74821   -0.237791           
         C         C         0.10998   0.47658   0.73496   -0.238369           
         C         C         0.50034   0.39787   0.65444   -0.047626           
         C         C         0.60215   0.10068   0.63929   -0.044139           
         C         C         0.89433   0.50172   0.66031   -0.046328           
         C         C         0.49673   0.60474   0.66076   -0.047027           
         C         C         0.39076   0.89678   0.65385   -0.047941           
         C         C         0.10034   0.49673   0.64388   -0.046015           
         C         C         0.50094   0.43487   0.65559   -0.140960           
         C         C         0.56458   0.06486   0.64228   -0.142469           
         C         C         0.93013   0.49985   0.65772   -0.140656           
         C         C         0.49539   0.56741   0.66202   -0.141769           
         C         C         0.42816   0.93290   0.65383   -0.141957           
         C         C         0.06429   0.49811   0.64819   -0.143829           
         B         B         0.32247   0.47492   0.75082   0.611801  
         B         B         0.52155   0.84925   0.75340   0.613074  
         B         B         0.15143   0.67402   0.76206   0.611280  
         B         B         0.67439   0.52393   0.75808   0.604709  
         B         B         0.47982   0.15623   0.75037   0.610386  
         B         B         0.84576   0.32348   0.75539   0.613745  
         O         O         0.29144   0.45559   0.83602   -0.340406           
         O         O         0.54158   0.83849   0.84211   -0.340370           
         O         O         0.16323   0.70603   0.84881   -0.339643           
         O         O         0.70357   0.53926   0.85511   -0.339590           
         O         O         0.46625   0.17106   0.84697   -0.339677           
         O         O         0.83332   0.29401   0.84613   -0.340699           
         O         O         0.31144   0.49418   0.66112   -0.339827           
         O         O         0.50230   0.81848   0.66171   -0.339472           
         O         O         0.18110   0.68455   0.67239   -0.340570           
         O         O         0.68720   0.50839   0.66124   -0.338931           
         O         O         0.49462   0.18389   0.65444   -0.340410           
         O         O         0.81596   0.31131   0.66080   -0.339441           
         C         C         0.26075   0.46319   0.79799   0.159772  
         C         C         0.53452   0.80031   0.80431   0.159644  
         C         C         0.20076   0.73698   0.81108   0.158894  
         C         C         0.73500   0.53315   0.81729   0.160408  
         C         C         0.47220   0.20833   0.80844   0.158316  
         C         C         0.79512   0.26286   0.80583   0.158514  
         B         B         0.48101   0.32921   0.74804   0.581713  
         B         B         0.67221   0.15150   0.73697   0.582272  
         B         B         0.84684   0.52281   0.75990   0.581538  
         B         B         0.52142   0.67667   0.74856   0.582933  
         B         B         0.32229   0.84858   0.75029   0.583798  
         B         B         0.15017   0.47594   0.73528   0.581959  
         O         O         0.49723   0.31573   0.65502   -0.334044           
         O         O         0.68402   0.18182   0.64870   -0.332019           
         O         O         0.81641   0.50538   0.66621   -0.333194           
         O         O         0.50077   0.68723   0.66091   -0.332750           
         O         O         0.31084   0.81594   0.66590   -0.334015           
         O         O         0.18147   0.49583   0.65085   -0.331894           
         O         O         0.46558   0.30108   0.84284   -0.332529           
         O         O         0.70254   0.16328   0.83020   -0.333042           
         O         O         0.83490   0.54002   0.85458   -0.333569           
         O         O         0.54273   0.70855   0.83611   -0.332697           
         O         O         0.29184   0.83873   0.83716   -0.333776           
         O         O         0.16078   0.45563   0.82287   -0.333197           
         C         C         0.49116   0.27843   0.69285   0.161996  
         C         C         0.72230   0.21263   0.68834   0.162186  
         C         C         0.78564   0.51245   0.70310   0.161137  
         C         C         0.50945   0.72611   0.69554   0.160848  
         C         C         0.27291   0.78562   0.70182   0.161858  
         C         C         0.21185   0.48773   0.68766   0.162133  
         C         C         0.50095   0.25220   0.63041   -0.272404           
         C         C         0.74725   0.24931   0.63149   -0.270256           
         C         C         0.74926   0.50183   0.63936   -0.273187           
         C         C         0.49607   0.75005   0.63783   -0.272830           
         C         C         0.24865   0.74718   0.64660   -0.274773           
         C         C         0.24950   0.50089   0.63415   -0.271487           
         C         C         0.47212   0.26965   0.80702   0.163032  
         C         C         0.73348   0.20141   0.79852   0.161153  
         C         C         0.79669   0.53325   0.81773   0.162688  
         C         C         0.53482   0.73900   0.80188   0.160317  
         C         C         0.26139   0.79938   0.80604   0.161286  
         C         C         0.19923   0.46326   0.79160   0.161531  
         C         C         0.49009   0.21648   0.69273   0.159756  
         C         C         0.78434   0.27367   0.69446   0.157268  
         C         C         0.72466   0.51366   0.70076   0.159962  
         C         C         0.51010   0.78790   0.69620   0.159027  
         C         C         0.21186   0.72367   0.70514   0.160761  
         C         C         0.27312   0.48708   0.69307   0.157757  
         C         C         0.22309   0.44994   0.85146   -0.274513           
         C         C         0.54847   0.77667   0.86102   -0.272555           
         C         C         0.22480   0.77564   0.86544   -0.271593           
         C         C         0.77169   0.54433   0.88028   -0.273178           
         C         C         0.46187   0.23426   0.87008   -0.272210           
         C         C         0.77035   0.22602   0.86226   -0.272177           
         H         H         0.42088   0.44820   0.58019   0.106285  
         H         H         0.35455   0.44603   0.57571   0.106164  
         H         H         0.38312   0.50556   0.93514   0.109096  
         H         H         0.45131   0.51153   0.93143   0.099061  
         H         H         0.44299   0.42169   0.90592   0.106033  
         H         H         0.44401   0.35688   0.90894   0.108113  
         H         H         0.51572   0.39103   0.58198   0.109137  
         H         H         0.51687   0.45690   0.58502   0.099451  
         H         H         0.51518   0.25872   0.54137   0.163794  
         H         H         0.21337   0.43157   0.93289   0.167268  
         H         H         0.54811   0.97325   0.58087   0.104257  
         H         H         0.54932   0.90871   0.57923   0.104895  
         H         H         0.49187   0.88048   0.93204   0.105299  
         H         H         0.48679   0.94302   0.92524   0.098534  
         H         H         0.57874   0.02649   0.90793   0.107197  
         H         H         0.64490   0.09101   0.90611   0.108285  
         H         H         0.60877   0.12084   0.56214   0.109809  
         H         H         0.54200   0.05733   0.56838   0.098969  
         H         H         0.73895   0.25790   0.54559   0.165962  
         H         H         0.56753   0.78632   0.94434   0.166885  
         H         H         0.02711   0.57363   0.57617   0.102570  
         H         H         0.09239   0.63871   0.57747   0.106445  
         H         H         0.11971   0.61639   0.94568   0.107616  
         H         H         0.05622   0.54934   0.93767   0.098992  
         H         H         0.97821   0.55754   0.91549   0.105833  
         H         H         0.91358   0.55894   0.92453   0.108299  
         H         H         0.87132   0.48671   0.58689   0.109945  
         H         H         0.93476   0.48312   0.58353   0.102714  
         H         H         0.74130   0.48653   0.54952   0.164201  
         H         H         0.21611   0.78601   0.94711   0.166881  
         H         H         0.57673   0.55315   0.58485   0.104366  
         H         H         0.64168   0.55262   0.58204   0.105539  
         H         H         0.61556   0.49611   0.93606   0.107740  
         H         H         0.54886   0.49325   0.93172   0.099737  
         H         H         0.56139   0.58595   0.90379   0.111163  
         H         H         0.56206   0.65155   0.90633   0.109446  
         H         H         0.47917   0.61007   0.59061   0.110137  
         H         H         0.47649   0.54361   0.59445   0.101088  
         H         H         0.47678   0.74033   0.55497   0.167130  
         H         H         0.77972   0.55956   0.97024   0.164309  
         H         H         0.43465   0.02173   0.60195   0.110456  
         H         H         0.43672   0.08781   0.59438   0.107436  
         H         H         0.52054   0.13164   0.90808   0.107573  
         H         H         0.52160   0.06715   0.90591   0.100971  
         H         H         0.41819   0.97909   0.91176   0.109386  
         H         H         0.35257   0.91430   0.91513   0.110285  
         H         H         0.38297   0.87416   0.57993   0.109757  
         H         H         0.44945   0.93832   0.58074   0.101051  
         H         H         0.25745   0.73676   0.56528   0.166887  
         H         H         0.44746   0.22765   0.95877   0.163969  
         H         H         0.97587   0.41432   0.60309   0.110412  
         H         H         0.91117   0.34870   0.60097   0.106417  
         H         H         0.87262   0.39008   0.91647   0.107226  
         H         H         0.93586   0.45690   0.91033   0.100602  
         H         H         0.02390   0.44263   0.90410   0.111806  
         H         H         0.08872   0.44145   0.89973   0.109213  
         H         H         0.12117   0.51125   0.56909   0.109084  
         H         H         0.05711   0.51381   0.57789   0.098700  
         H         H         0.25926   0.51939   0.55301   0.165715  
         H         H         0.77876   0.21739   0.94790   0.165749 

