
##########################################################################
#               Crystallographic Information Format file
#               Produced by PyCifRW module
#
#  This is a CIF file.  CIF has been adopted by the International
#  Union of Crystallography as the standard for data archiving and
#  transmission.
#
#  For information on this file format, follow the CIF links at
#  http://www.iucr.org
##########################################################################

data_image0

_cell_length_a                          29.7066
_cell_length_b                          29.8937
_cell_length_c                          9.81314
_cell_angle_alpha                       123.92
_cell_angle_beta                        96.6717
_cell_angle_gamma                       118.613
_symmetry_space_group_name_H-M          'P 1'
_space_group_name_Hall                  'P 1'
loop_
  _atom_site_type_symbol
  _atom_site_label
  _atom_site_fract_x
  _atom_site_fract_y
  _atom_site_fract_z
  _atom_site_charge
         N         N         0.41672   0.61297   0.32225   -0.221545           
         N         N         0.39729   0.79893   0.21472   -0.217551           
         N         N         0.18384   0.58530   0.21147   -0.217119           
         N         N         0.58422   0.38392   0.22831   -0.221631           
         N         N         0.62287   0.20681   0.33121   -0.226833           
         N         N         0.82125   0.42669   0.31365   -0.234911           
         C         C         0.36270   0.59431   0.28296   0.132136  
         C         C         0.43683   0.57811   0.31252   0.130277  
         C         C         0.40951   0.52403   0.31160   0.150065  
         C         C         0.43411   0.49256   0.29426   -0.221914           
         C         C         0.48487   0.51189   0.27638   0.059206  
         C         C         0.51240   0.56767   0.28428   -0.131305           
         C         C         0.48909   0.59997   0.30318   -0.162425           
         H         H         0.31452   0.35516   0.08701   0.151913  
         H         H         0.24377   0.33116   0.99335   0.170658  
         N         N         0.36121   0.50576   0.34327   -0.394814           
         C         C         0.31193   0.43894   0.26247   0.582108  
         H         H         0.36825   0.54677   0.46515   0.270642  
         C         C         0.29251   0.37381   0.06807   -0.522985           
         O         O         0.28467   0.43475   0.34646   -0.496353           
         H         H         0.30297   0.38432   0.98038   0.159156  
         C         C         0.40962   0.76482   0.23623   0.111758  
         C         C         0.43100   0.85208   0.21625   0.125751  
         C         C         0.48796   0.88099   0.23172   0.151687  
         C         C         0.51725   0.93838   0.24784   -0.213323           
         C         C         0.49301   0.96879   0.24865   0.068049  
         C         C         0.43504   0.93659   0.22065   -0.125917           
         C         C         0.40484   0.87968   0.20434   -0.159241           
         H         H         0.65286   0.99433   0.56511   0.172359  
         H         H         0.58668   0.97855   0.56662   0.134812  
         N         N         0.51310   0.84928   0.21630   -0.418610           
         C         C         0.57245   0.88370   0.33076   0.576943  
         H         H         0.49189   0.80112   0.07781   0.275780  
         C         C         0.60893   0.95654   0.53576   -0.531242           
         O         O         0.59188   0.85277   0.26949   -0.494516           
         H         H         0.61731   0.94929   0.63131   0.165613  
         C         C         0.22417   0.63694   0.22451   0.110785  
         C         C         0.12911   0.56106   0.20419   0.112513  
         C         C         0.09536   0.57999   0.17894   0.165772  
         C         C         0.04217   0.55112   0.18060   -0.213114           
         C         C         0.02151   0.50600   0.21018   0.058583  
         C         C         0.05314   0.48413   0.22242   -0.137444           
         C         C         0.10577   0.51129   0.21951   -0.179367           
         H         H         0.02341   0.63950   0.15853   0.151213  
         H         H         0.07970   0.68361   0.38455   0.174894  
         N         N         0.11505   0.62420   0.14565   -0.380699           
         C         C         0.10671   0.67038   0.17691   0.587385  
         H         H         0.13608   0.61823   0.06985   0.264536  
         C         C         0.07172   0.68240   0.27015   -0.530926           
         O         O         0.12890   0.70064   0.12533   -0.504000           
         H         H         0.08491   0.73319   0.32787   0.167850  
         C         C         0.63932   0.40599   0.26565   0.114913  
         C         C         0.56080   0.41485   0.22842   0.131176  
         C         C         0.58389   0.46427   0.21149   0.154114  
         C         C         0.55731   0.49336   0.22417   -0.227436           
         C         C         0.50974   0.47754   0.25820   0.060130  
         C         C         0.48638   0.42659   0.26870   -0.133191           
         C         C         0.51093   0.39549   0.25127   -0.164376           
         H         H         0.67485   0.63176   0.37412   0.154010  
         H         H         0.67847   0.60676   0.50137   0.154316  
         N         N         0.62982   0.48058   0.16931   -0.386362           
         C         C         0.67532   0.54518   0.23027   0.579056  
         H         H         0.62448   0.43753   0.06070   0.272359  
         C         C         0.69287   0.61284   0.41085   -0.522269           
         O         O         0.70198   0.54648   0.14347   -0.488624           
         H         H         0.74216   0.65362   0.49136   0.173159  
         C         C         0.60858   0.24143   0.31991   0.103571  
         C         C         0.58866   0.14941   0.31416   0.120529  
         C         C         0.52469   0.09911   0.21021   0.146374  
         C         C         0.49515   0.04116   0.19108   -0.217836           
         C         C         0.52618   0.03097   0.27349   0.063330  
         C         C         0.58951   0.08137   0.37676   -0.127479           
         C         C         0.61970   0.13870   0.39489   -0.161676           
         H         H         0.37539   0.02791   0.10355   0.162051  
         H         H         0.44561   0.09723   0.32603   0.140592  
         N         N         0.49148   0.10454   0.11396   -0.394719           
         C         C         0.44475   0.10405   0.11646   0.572112  
         H         H         0.50815   0.11926   0.04799   0.271107  
         C         C         0.41569   0.08548   0.21221   -0.520341           
         O         O         0.42789   0.11881   0.03752   -0.496813           
         H         H         0.40096   0.11570   0.27375   0.182358  
         C         C         0.78885   0.38080   0.32730   0.111168  
         C         C         0.86941   0.44261   0.28460   0.120795  
         C         C         0.87994   0.39483   0.19120   0.156924  
         C         C         0.93056   0.41767   0.17393   -0.233486           
         C         C         0.96932   0.48438   0.23466   0.068538  
         C         C         0.95552   0.52874   0.31412   -0.147064           
         C         C         0.90700   0.50843   0.34015   -0.169192           
         H         H         0.91961   0.29778   0.08732   0.174666  
         H         H         0.93522   0.36202   0.32123   0.140206  
         N         N         0.83573   0.32389   0.10154   -0.399200           
         C         C         0.84054   0.27832   0.09107   0.592382  
         H         H         0.79228   0.30211   0.03422   0.286234  
         C         C         0.90287   0.30516   0.18564   -0.527601           
         O         O         0.79421   0.21828   0.00752   -0.507971           
         H         H         0.89928   0.27265   0.21110   0.161314  
         H         H         0.51102   0.64274   0.30842   0.139589  
         H         H         0.41388   0.45353   0.30280   0.115547  
         H         H         0.55291   0.58687   0.27764   0.113036  
         H         H         0.36032   0.85613   0.18623   0.132192  
         H         H         0.55968   0.95754   0.25325   0.120265  
         H         H         0.41395   0.95764   0.21742   0.110145  
         H         H         0.13147   0.49623   0.23545   0.138249  
         H         H         0.01526   0.56316   0.15419   0.115484  
         H         H         0.03846   0.44901   0.24482   0.117139  
         H         H         0.49302   0.35700   0.26270   0.133224  
         H         H         0.57358   0.52737   0.19817   0.114388  
         H         H         0.44919   0.41116   0.29291   0.112792  
         H         H         0.66851   0.17803   0.47888   0.135049  
         H         H         0.44635   0.00113   0.09992   0.114901  
         H         H         0.61512   0.07633   0.44674   0.119684  
         H         H         0.89745   0.54381   0.40593   0.135899  
         H         H         0.93696   0.37983   0.09661   0.125589  
         H         H         0.98387   0.58017   0.35970   0.118233  
         C         C         0.62172   0.32200   0.29263   0.346140  
         C         C         0.65822   0.37508   0.28999   -0.254450           
         C         C         0.70228   0.31316   0.33604   0.360669  
         C         C         0.64501   0.29251   0.31908   -0.246992           
         C         C         0.71668   0.39915   0.31297   0.361169  
         C         C         0.73712   0.36614   0.33009   -0.248113           
         C         C         0.38941   0.68444   0.27381   0.334631  
         C         C         0.34871   0.63032   0.26738   -0.256010           
         C         C         0.31524   0.70190   0.22936   0.353373  
         C         C         0.37092   0.71702   0.24469   -0.250683           
         C         C         0.29103   0.61067   0.24217   0.360150  
         C         C         0.27632   0.64902   0.23136   -0.248493           
         O         O         0.57021   0.30120   0.27129   -0.474984           
         O         O         0.72079   0.28505   0.35229   -0.473472           
         O         O         0.74754   0.44601   0.31042   -0.444804           
         O         O         0.44149   0.70440   0.30676   -0.478317           
         O         O         0.30075   0.73345   0.21412   -0.473745           
         O         O         0.25560   0.56303   0.23756   -0.447404           
         H         H         0.56056   0.34283   0.22448   0.268511  
         H         H         0.67080   0.45007   0.28248   0.109609  
         H         H         0.80217   0.35372   0.33369   0.098905  
         H         H         0.80190   0.44888   0.31380   0.267646  
         H         H         0.66540   0.22679   0.34829   0.269782  
         H         H         0.56688   0.22951   0.31044   0.106017  
         H         H         0.45108   0.77558   0.24851   0.100761  
         H         H         0.35627   0.78439   0.20839   0.264025  
         H         H         0.21811   0.67136   0.23284   0.103111  
         H         H         0.20129   0.56183   0.21667   0.263544  
         H         H         0.32819   0.54979   0.25969   0.107736  
         H         H         0.44412   0.65625   0.33750   0.266744  
         N         N         0.42187   0.62254   0.81570   -0.224167           
         N         N         0.39478   0.80497   0.71689   -0.213805           
         N         N         0.18422   0.58511   0.70580   -0.216055           
         N         N         0.59079   0.39539   0.73175   -0.225703           
         N         N         0.61577   0.21127   0.83183   -0.222502           
         N         N         0.82156   0.42170   0.81023   -0.215776           
         C         C         0.36645   0.60020   0.77076   0.109338  
         C         C         0.44457   0.59069   0.81280   0.128618  
         C         C         0.42020   0.54036   0.82580   0.149904  
         C         C         0.44553   0.50998   0.81178   -0.222135           
         C         C         0.49453   0.52711   0.78481   0.059976  
         C         C         0.51979   0.58002   0.78151   -0.128953           
         C         C         0.49563   0.61126   0.79670   -0.157439           
         H         H         0.32427   0.40077   0.52520   0.151818  
         H         H         0.32112   0.36925   0.63717   0.152301  
         N         N         0.37391   0.52460   0.86668   -0.393109           
         C         C         0.32506   0.45913   0.79385   0.584106  
         H         H         0.38064   0.56739   0.98130   0.279076  
         C         C         0.30657   0.39202   0.60751   -0.522152           
         O         O         0.29705   0.45703   0.87660   -0.496909           
         H         H         0.25713   0.35305   0.52087   0.174534  
         C         C         0.40945   0.77344   0.74287   0.116396  
         C         C         0.42612   0.85588   0.71007   0.128499  
         C         C         0.48133   0.88258   0.71421   0.150764  
         C         C         0.50924   0.93912   0.72697   -0.211387           
         C         C         0.48455   0.96963   0.73048   0.062915  
         C         C         0.42730   0.93815   0.70893   -0.125565           
         C         C         0.39916   0.88279   0.69929   -0.155626           
         H         H         0.64521   0.99660   0.02769   0.163551  
         H         H         0.58156   0.97949   0.05094   0.134422  
         N         N         0.50707   0.85104   0.69547   -0.411087           
         C         C         0.56632   0.88458   0.80774   0.568175  
         H         H         0.48456   0.80047   0.56300   0.271902  
         C         C         0.60458   0.95881   0.01084   -0.529174           
         O         O         0.58499   0.85270   0.74567   -0.491255           
         H         H         0.61974   0.95526   0.10929   0.167314  
         C         C         0.22352   0.63743   0.71975   0.112874  
         C         C         0.12992   0.56058   0.70125   0.118669  
         C         C         0.09539   0.57885   0.67816   0.164687  
         C         C         0.04123   0.54697   0.67235   -0.214359           
         C         C         0.02010   0.50011   0.69611   0.059897  
         C         C         0.05398   0.48101   0.71302   -0.144363           
         C         C         0.10725   0.51043   0.71479   -0.178959           
         H         H         0.02470   0.64153   0.69774   0.143785  
         H         H         0.08927   0.69251   0.91775   0.180255  
         N         N         0.11434   0.62453   0.65026   -0.383364           
         C         C         0.10367   0.66906   0.68176   0.587397  
         H         H         0.13282   0.61758   0.56659   0.264868  
         C         C         0.07387   0.68530   0.79414   -0.537048           
         O         O         0.12076   0.69508   0.61609   -0.511692           
         H         H         0.08383   0.73373   0.84173   0.167003  
         C         C         0.64505   0.41476   0.76769   0.140967  
         C         C         0.56921   0.42852   0.73692   0.128933  
         C         C         0.59372   0.47939   0.72552   0.149606  
         C         C         0.56804   0.50956   0.73974   -0.219093           
         C         C         0.51956   0.49307   0.76895   0.059039  
         C         C         0.49503   0.44103   0.77550   -0.136523           
         C         C         0.51889   0.40921   0.75749   -0.163061           
         H         H         0.69432   0.61985   0.03202   0.158854  
         H         H         0.75406   0.67022   0.01581   0.172358  
         N         N         0.64059   0.49651   0.68753   -0.389998           
         C         C         0.68542   0.56178   0.75073   0.582858  
         H         H         0.63397   0.45466   0.56888   0.271372  
         C         C         0.70520   0.62852   0.94158   -0.525037           
         O         O         0.70933   0.56311   0.65670   -0.492559           
         H         H         0.68462   0.64813   0.92061   0.155391  
         C         C         0.60579   0.25044   0.83191   0.094664  
         C         C         0.58017   0.15240   0.80766   0.108918  
         C         C         0.51606   0.10454   0.71038   0.166113  
         C         C         0.48609   0.04530   0.68645   -0.229259           
         C         C         0.51725   0.03197   0.75562   0.062625  
         C         C         0.58054   0.07970   0.84960   -0.140281           
         C         C         0.61100   0.13813   0.87287   -0.155042           
         H         H         0.37118   0.00886   0.52766   0.150827  
         H         H         0.41287   0.08506   0.78481   0.176146  
         N         N         0.48460   0.11492   0.62873   -0.405360           
         C         C         0.43530   0.11104   0.62438   0.583670  
         H         H         0.50911   0.14741   0.61159   0.262919  
         C         C         0.39097   0.06482   0.64159   -0.535183           
         O         O         0.43018   0.14554   0.60196   -0.489304           
         H         H         0.35530   0.06742   0.62699   0.171273  
         C         C         0.78689   0.37688   0.82424   0.116402  
         C         C         0.86859   0.43527   0.77688   0.136409  
         C         C         0.89284   0.40202   0.74661   0.145395  
         C         C         0.94057   0.42260   0.71562   -0.208775           
         C         C         0.96617   0.47503   0.71168   0.056795  
         C         C         0.94065   0.50669   0.73933   -0.131959           
         C         C         0.89354   0.48748   0.77117   -0.172255           
         H         H         0.81947   0.25810   0.38553   0.166651  
         H         H         0.88742   0.27283   0.43595   0.154137  
         N         N         0.87277   0.35265   0.76323   -0.405144           
         C         C         0.86541   0.29133   0.65336   0.577969  
         H         H         0.88437   0.37495   0.90041   0.250418  
         C         C         0.84710   0.25201   0.44555   -0.528768           
         O         O         0.87113   0.26977   0.72515   -0.502302           
         H         H         0.82268   0.19551   0.36336   0.172488  
         H         H         0.51583   0.65170   0.79287   0.138852  
         H         H         0.42713   0.47383   0.83046   0.115432  
         H         H         0.55906   0.59759   0.76795   0.114460  
         H         H         0.35564   0.86025   0.68828   0.131855  
         H         H         0.55102   0.95798   0.72793   0.115148  
         H         H         0.40563   0.95889   0.70742   0.112210  
         H         H         0.13370   0.49630   0.73147   0.137656  
         H         H         0.01443   0.55905   0.64584   0.110555  
         H         H         0.04040   0.44505   0.73199   0.115750  
         H         H         0.49973   0.36969   0.76518   0.133578  
         H         H         0.58575   0.54506   0.71878   0.114964  
         H         H         0.45703   0.42501   0.79572   0.112984  
         H         H         0.65991   0.17529   0.94789   0.136159  
         H         H         0.43712   0.00712   0.60342   0.113940  
         H         H         0.60609   0.07223   0.90964   0.119541  
         H         H         0.87427   0.51224   0.79113   0.135765  
         H         H         0.95952   0.39810   0.70294   0.118546  
         H         H         0.95811   0.54771   0.73862   0.110488  
         C         C         0.62551   0.33432   0.81108   0.342053  
         C         C         0.66179   0.38247   0.79389   -0.251802           
         C         C         0.70043   0.31674   0.84384   0.357804  
         C         C         0.64471   0.30064   0.83087   -0.243507           
         C         C         0.71872   0.40156   0.81029   0.362267  
         C         C         0.73651   0.36672   0.83038   -0.249634           
         C         C         0.39131   0.69279   0.77470   0.337537  
         C         C         0.35061   0.63525   0.75745   -0.249208           
         C         C         0.31396   0.70535   0.72665   0.353983  
         C         C         0.37111   0.72422   0.74753   -0.251081           
         C         C         0.29144   0.61176   0.72629   0.363007  
         C         C         0.27564   0.65044   0.72300   -0.248027           
         O         O         0.57746   0.32147   0.80958   -0.482147           
         O         O         0.71654   0.28735   0.86482   -0.486886           
         O         O         0.75080   0.44591   0.80131   -0.448146           
         O         O         0.44459   0.71597   0.81312   -0.477415           
         O         O         0.29753   0.73562   0.71216   -0.473296           
         O         O         0.25617   0.56096   0.71129   -0.448016           
         H         H         0.56672   0.35705   0.73615   0.265546  
         H         H         0.67689   0.45649   0.77746   0.108489  
         H         H         0.79667   0.34684   0.82747   0.092930  
         H         H         0.80365   0.44489   0.80728   0.262041  
         H         H         0.65803   0.22963   0.84694   0.266200  
         H         H         0.56673   0.24455   0.83301   0.107813  
         H         H         0.45186   0.78646   0.76005   0.102259  
         H         H         0.35343   0.78853   0.70960   0.263089  
         H         H         0.21663   0.67186   0.73216   0.104463  
         H         H         0.20108   0.56029   0.70219   0.265224  
         H         H         0.33261   0.55286   0.73852   0.111159  
         H         H         0.44811   0.66704   0.83432   0.268694 

