
##########################################################################
#               Crystallographic Information Format file
#               Produced by PyCifRW module
#
#  This is a CIF file.  CIF has been adopted by the International
#  Union of Crystallography as the standard for data archiving and
#  transmission.
#
#  For information on this file format, follow the CIF links at
#  http://www.iucr.org
##########################################################################

data_image0

_cell_length_a                          23.689
_cell_length_b                          26.8948
_cell_length_c                          11.6173
_cell_angle_alpha                       120.753
_cell_angle_beta                        124.946
_cell_angle_gamma                       65.7424
_symmetry_space_group_name_H-M          'P 1'
_space_group_name_Hall                  'P 1'
loop_
  _atom_site_type_symbol
  _atom_site_label
  _atom_site_fract_x
  _atom_site_fract_y
  _atom_site_fract_z
  _atom_site_charge
         N         N         0.51490   0.51474   0.34243   -0.188210           
         N         N         0.50429   0.46714   0.34037   -0.182291           
         C         C         0.46462   0.55949   0.35075   0.068791  
         C         C         0.55473   0.42272   0.33804   0.066747  
         H         H         0.42142   0.55583   0.35413   0.092832  
         H         H         0.59982   0.42447   0.33692   0.090808  
         N         N         0.98170   0.49479   0.35802   -0.170501           
         N         N         0.02857   0.50322   0.33692   -0.174226           
         C         C         0.92764   0.53683   0.35310   0.062172  
         C         C         0.08311   0.46155   0.34323   0.059811  
         H         H         0.92385   0.57540   0.33810   0.096688  
         H         H         0.08829   0.42424   0.36430   0.094799  
         N         N         0.52010   0.97232   0.30062   -0.194140           
         N         N         0.46070   0.01141   0.30898   -0.155893           
         C         C         0.52548   0.92325   0.30674   0.064084  
         C         C         0.45262   0.06015   0.29821   0.049464  
         H         H         0.48425   0.91792   0.31367   0.095555  
         H         H         0.48946   0.06587   0.27910   0.081829  
         C         C         0.80705   0.47682   0.34983   -0.046634           
         C         C         0.75380   0.52567   0.34373   -0.139687           
         C         C         0.19836   0.51617   0.31791   -0.046226           
         C         C         0.25036   0.46611   0.31825   -0.139478           
         H         H         0.70692   0.52199   0.33254   0.105568  
         H         H         0.29381   0.46693   0.31162   0.105979  
         C         C         0.70198   0.83717   0.32762   -0.046852           
         C         C         0.69702   0.78651   0.32485   -0.149367           
         C         C         0.29304   0.16284   0.35354   -0.074136           
         C         C         0.30411   0.21312   0.36689   -0.147389           
         H         H         0.74176   0.75152   0.33451   0.100491  
         H         H         0.26912   0.25392   0.39095   0.104507  
         C         C         0.41426   0.71617   0.37163   -0.086429           
         C         C         0.47341   0.71905   0.37717   -0.152911           
         C         C         0.60546   0.27348   0.36470   -0.085972           
         C         C         0.54498   0.27477   0.36128   -0.155195           
         H         H         0.47652   0.76021   0.38733   0.100062  
         H         H         0.54262   0.23783   0.37044   0.098198  
         C         C         0.46647   0.61440   0.35765   -0.036620           
         C         C         0.52399   0.62036   0.36283   -0.138715           
         C         C         0.55170   0.37012   0.34032   -0.036314           
         C         C         0.49255   0.36809   0.33707   -0.139089           
         H         H         0.56434   0.58181   0.35939   0.107859  
         H         H         0.45096   0.40563   0.32595   0.107051  
         C         C         0.58431   0.87665   0.30870   -0.085916           
         C         C         0.58329   0.82485   0.30890   -0.155734           
         C         C         0.39797   0.10984   0.31558   -0.041839           
         C         C         0.40155   0.16055   0.31521   -0.167248           
         H         H         0.53717   0.82260   0.30417   0.105031  
         H         H         0.44064   0.15726   0.28891   0.109000  
         C         C         0.87100   0.53317   0.36099   -0.078822           
         C         C         0.81484   0.58029   0.35294   -0.162609           
         C         C         0.13802   0.46350   0.32688   -0.075689           
         C         C         0.19455   0.41678   0.33762   -0.164624           
         H         H         0.81885   0.61824   0.34922   0.106451  
         H         H         0.19330   0.38180   0.35680   0.105116  
         C         C         0.58760   0.67552   0.36317   0.089445  
         C         C         0.41087   0.66222   0.35938   0.224638  
         C         C         0.52878   0.67190   0.37020   0.048836  
         C         C         0.69703   0.62844   0.34578   0.076757  
         C         C         0.86883   0.48198   0.36658   0.248765  
         C         C         0.75569   0.57835   0.34805   0.039237  
         C         C         0.64038   0.72606   0.33009   0.079559  
         C         C         0.64329   0.88295   0.31616   0.252255  
         C         C         0.63931   0.77865   0.31716   0.041913  
         C         C         0.58807   0.72433   0.34998   -0.190582           
         C         C         0.64375   0.62871   0.36545   -0.188506           
         C         C         0.69344   0.67701   0.32506   -0.198128           
         C         C         0.42542   0.31944   0.34654   0.089624  
         C         C         0.60756   0.32220   0.35203   0.223123  
         C         C         0.48776   0.32109   0.34819   0.046484  
         C         C         0.30965   0.36509   0.33346   0.078778  
         C         C         0.13843   0.51292   0.31160   0.249940  
         C         C         0.25121   0.41566   0.32811   0.036228  
         C         C         0.36052   0.26625   0.34187   0.077831  
         C         C         0.34340   0.11155   0.33636   0.239362  
         C         C         0.35665   0.21330   0.34473   0.045024  
         C         C         0.41986   0.26983   0.34852   -0.190656           
         C         C         0.37057   0.36764   0.34375   -0.183157           
         C         C         0.30485   0.31352   0.32929   -0.199927           
         H         H         0.64552   0.59187   0.38253   0.110657  
         H         H         0.73284   0.67665   0.30443   0.102539  
         H         H         0.54681   0.76191   0.35558   0.100396  
         H         H         0.37610   0.40794   0.35226   0.114087  
         H         H         0.25658   0.30982   0.31372   0.098696  
         H         H         0.46279   0.23307   0.35621   0.102003  
         O         O         0.35502   0.65242   0.34839   -0.434266           
         O         O         0.92496   0.43862   0.38207   -0.409332           
         O         O         0.64306   0.93305   0.31506   -0.408684           
         O         O         0.66327   0.32706   0.35232   -0.435860           
         O         O         0.08252   0.55647   0.29675   -0.408844           
         O         O         0.34189   0.06158   0.33708   -0.422763           
         H         H         0.31937   0.68724   0.34447   0.343860  
         H         H         0.96005   0.45025   0.37979   0.290606  
         H         H         0.59623   0.95931   0.30696   0.290453  
         H         H         0.70153   0.29578   0.37959   0.344279  
         H         H         0.04849   0.54597   0.30428   0.291773  
         H         H         0.30785   0.07074   0.36972   0.344557  
         C         C         0.76876   0.84359   0.34727   0.270558  
         C         C         0.82569   0.78876   0.36189   -0.432707           
         C         C         0.79844   0.89722   0.49131   -0.438358           
         C         C         0.75216   0.85152   0.20764   -0.444031           
         C         C         0.22684   0.16312   0.34993   0.256746  
         C         C         0.17800   0.22296   0.35584   -0.420606           
         C         C         0.24386   0.15256   0.48620   -0.446658           
         C         C         0.18543   0.11603   0.20107   -0.441597           
         H         H         0.87165   0.79515   0.37276   0.124366  
         H         H         0.80805   0.74922   0.26095   0.126027  
         H         H         0.84222   0.78063   0.46165   0.116605  
         H         H         0.76172   0.93804   0.48259   0.133072  
         H         H         0.84719   0.90044   0.50653   0.119025  
         H         H         0.81019   0.89270   0.59219   0.112836  
         H         H         0.73378   0.81263   0.10635   0.119351  
         H         H         0.79962   0.85673   0.22199   0.113897  
         H         H         0.71212   0.88989   0.18904   0.137088  
         H         H         0.13028   0.22114   0.34740   0.126404  
         H         H         0.16274   0.23431   0.26200   0.121908  
         H         H         0.20240   0.25845   0.46290   0.128605  
         H         H         0.27708   0.11058   0.49732   0.113476  
         H         H         0.19520   0.15402   0.47994   0.127223  
         H         H         0.27077   0.18691   0.59146   0.131101  
         H         H         0.16579   0.12638   0.10280   0.125748  
         H         H         0.14058   0.11473   0.20408   0.125497  
         H         H         0.21632   0.07174   0.18281   0.120313  
         C         C         0.79430   0.42231   0.33893   0.271766  
         C         C         0.84036   0.36486   0.28434   -0.430998           
         C         C         0.71736   0.41386   0.22703   -0.446027           
         C         C         0.80947   0.43175   0.49632   -0.435832           
         C         C         0.21222   0.56960   0.32581   0.269465  
         C         C         0.15962   0.62668   0.35174   -0.425414           
         C         C         0.20949   0.55413   0.17538   -0.440246           
         C         C         0.28564   0.58283   0.45746   -0.436087           
         H         H         0.82261   0.32768   0.26202   0.108424  
         H         H         0.89540   0.36303   0.36805   0.134305  
         H         H         0.83743   0.35866   0.18007   0.117462  
         H         H         0.68033   0.45050   0.26332   0.127392  
         H         H         0.70961   0.37470   0.22031   0.122515  
         H         H         0.70334   0.40847   0.11364   0.119720  
         H         H         0.86302   0.43967   0.58063   0.119412  
         H         H         0.80260   0.39278   0.49234   0.125198  
         H         H         0.77307   0.46932   0.53252   0.123435  
         H         H         0.17705   0.66206   0.36440   0.109424  
         H         H         0.15647   0.63964   0.45436   0.120358  
         H         H         0.10681   0.62283   0.25731   0.131715  
         H         H         0.24520   0.51359   0.14784   0.125452  
         H         H         0.22406   0.58937   0.18062   0.124360  
         H         H         0.15659   0.54821   0.08309   0.115672  
         H         H         0.28852   0.59560   0.56689   0.115563  
         H         H         0.29730   0.61901   0.45977   0.120849  
         H         H         0.32734   0.54526   0.44602   0.125731  
         C         C         0.35628   0.76999   0.38057   0.261908  
         C         C         0.37462   0.82415   0.40299   -0.426647           
         C         C         0.34777   0.78748   0.51993   -0.444100           
         C         C         0.28657   0.75746   0.23332   -0.436767           
         C         C         0.66691   0.22218   0.38968   0.265279  
         C         C         0.64626   0.17186   0.37882   -0.425754           
         C         C         0.72815   0.24456   0.54878   -0.442615           
         C         C         0.69193   0.19371   0.26860   -0.444068           
         H         H         0.33220   0.86151   0.40951   0.127654  
         H         H         0.38108   0.81669   0.30875   0.122259  
         H         H         0.42266   0.83694   0.50816   0.131829  
         H         H         0.33348   0.75322   0.51896   0.109613  
         H         H         0.30789   0.82688   0.53001   0.129630  
         H         H         0.39758   0.79714   0.62217   0.132873  
         H         H         0.29417   0.74355   0.13533   0.128334  
         H         H         0.24680   0.79727   0.23689   0.129698  
         H         H         0.26470   0.72263   0.21091   0.114090  
         H         H         0.69102   0.13606   0.39492   0.129021  
         H         H         0.60268   0.15413   0.26769   0.133478  
         H         H         0.63149   0.18595   0.46632   0.118232  
         H         H         0.77163   0.20809   0.57009   0.129981  
         H         H         0.71074   0.26376   0.63511   0.129485  
         H         H         0.74824   0.27883   0.56356   0.115105  
         H         H         0.64884   0.17846   0.15509   0.135890  
         H         H         0.73279   0.15558   0.28633   0.131445  
         H         H         0.71412   0.22224   0.26826   0.106052  
         N         N         0.50226   0.52203   0.83511   -0.184776           
         N         N         0.49109   0.47469   0.83307   -0.181177           
         C         C         0.45132   0.56629   0.83801   0.067255  
         C         C         0.54407   0.43161   0.84135   0.064184  
         H         H         0.40681   0.56342   0.83861   0.091986  
         H         H         0.59051   0.43517   0.84917   0.092784  
         N         N         0.96978   0.49799   0.84109   -0.171874           
         N         N         0.01718   0.50711   0.82331   -0.172777           
         C         C         0.91578   0.53997   0.83703   0.063901  
         C         C         0.07087   0.46453   0.82682   0.060335  
         H         H         0.91158   0.57853   0.82168   0.096053  
         H         H         0.07424   0.42646   0.84261   0.095876  
         N         N         0.52182   0.98099   0.81785   -0.179098           
         N         N         0.46282   0.01867   0.83448   -0.179609           
         C         C         0.53508   0.93494   0.84416   0.058588  
         C         C         0.44941   0.06544   0.80925   0.047992  
         H         H         0.50034   0.93092   0.87217   0.072775  
         H         H         0.48301   0.06912   0.77819   0.081382  
         C         C         0.80010   0.48196   0.85259   -0.051662           
         C         C         0.74835   0.53205   0.85514   -0.139183           
         C         C         0.18862   0.51971   0.81034   -0.046381           
         C         C         0.23945   0.46900   0.80755   -0.142336           
         H         H         0.70441   0.52997   0.85808   0.106831  
         H         H         0.28322   0.46975   0.80218   0.105614  
         C         C         0.70318   0.83568   0.82469   -0.076015           
         C         C         0.69413   0.78664   0.82059   -0.149760           
         C         C         0.28765   0.16688   0.85639   -0.075850           
         C         C         0.29772   0.21709   0.86714   -0.152762           
         H         H         0.73357   0.74782   0.81234   0.099121  
         H         H         0.26148   0.25732   0.88743   0.102523  
         C         C         0.40308   0.72274   0.85722   -0.085769           
         C         C         0.46089   0.72398   0.85522   -0.157229           
         C         C         0.59642   0.28244   0.86973   -0.080882           
         C         C         0.53572   0.28265   0.86333   -0.154442           
         H         H         0.46458   0.76468   0.86363   0.099113  
         H         H         0.53337   0.24542   0.87213   0.098122  
         C         C         0.45341   0.62044   0.84146   -0.033634           
         C         C         0.50993   0.62474   0.84022   -0.139866           
         C         C         0.54162   0.37887   0.84388   -0.034557           
         C         C         0.48191   0.37564   0.83650   -0.140617           
         H         H         0.54986   0.58583   0.83580   0.108325  
         H         H         0.43973   0.41278   0.82369   0.108317  
         C         C         0.59209   0.88599   0.83669   -0.041209           
         C         C         0.58964   0.83656   0.84460   -0.165057           
         C         C         0.39419   0.11502   0.82509   -0.038648           
         C         C         0.39673   0.16555   0.82180   -0.168918           
         H         H         0.54719   0.83931   0.86011   0.104740  
         H         H         0.43616   0.16249   0.79715   0.108083  
         C         C         0.86044   0.53636   0.84886   -0.081142           
         C         C         0.80480   0.58373   0.84355   -0.161960           
         C         C         0.12654   0.46677   0.81389   -0.079681           
         C         C         0.18212   0.41935   0.82197   -0.160384           
         H         H         0.80694   0.62018   0.83079   0.106155  
         H         H         0.17920   0.38377   0.83638   0.104417  
         C         C         0.57532   0.67902   0.84294   0.086738  
         C         C         0.39915   0.66930   0.84680   0.222196  
         C         C         0.51491   0.67565   0.84490   0.049098  
         C         C         0.69018   0.63434   0.85020   0.080495  
         C         C         0.85963   0.48547   0.85793   0.254084  
         C         C         0.74829   0.58371   0.85147   0.037397  
         C         C         0.63639   0.73299   0.84005   0.082608  
         C         C         0.64920   0.88515   0.82578   0.241029  
         C         C         0.63897   0.78541   0.83257   0.047403  
         C         C         0.57828   0.72863   0.83649   -0.191132           
         C         C         0.63120   0.63181   0.84654   -0.186958           
         C         C         0.69260   0.68603   0.85153   -0.197356           
         C         C         0.41541   0.32488   0.84242   0.090078  
         C         C         0.59877   0.33190   0.85969   0.222484  
         C         C         0.47773   0.32810   0.84718   0.048172  
         C         C         0.29841   0.36833   0.82318   0.077667  
         C         C         0.12874   0.51719   0.80543   0.252682  
         C         C         0.23940   0.41834   0.81526   0.035850  
         C         C         0.35247   0.27076   0.84007   0.079905  
         C         C         0.33897   0.11616   0.84246   0.235421  
         C         C         0.35026   0.21790   0.84653   0.044289  
         C         C         0.41141   0.27542   0.84771   -0.191155           
         C         C         0.35909   0.37167   0.83477   -0.186145           
         C         C         0.29524   0.31686   0.82243   -0.202469           
         H         H         0.62821   0.59236   0.84584   0.110113  
         H         H         0.73949   0.68956   0.86190   0.097637  
         H         H         0.53445   0.76466   0.82762   0.099117  
         H         H         0.36326   0.41167   0.83969   0.112500  
         H         H         0.24753   0.31238   0.80680   0.099413  
         H         H         0.45549   0.23971   0.85950   0.102719  
         O         O         0.34433   0.66137   0.84379   -0.436150           
         O         O         0.91476   0.44126   0.86698   -0.410589           
         O         O         0.65026   0.93467   0.82212   -0.422631           
         O         O         0.65569   0.33746   0.86507   -0.439921           
         O         O         0.07459   0.56215   0.79819   -0.410707           
         O         O         0.33707   0.06560   0.84025   -0.423890           
         H         H         0.30627   0.69383   0.82504   0.341700  
         H         H         0.94902   0.45298   0.86239   0.289259  
         H         H         0.68779   0.92629   0.79994   0.341030  
         H         H         0.69615   0.31188   0.91370   0.349407  
         H         H         0.03972   0.55142   0.80291   0.291612  
         H         H         0.30241   0.07403   0.87051   0.340903  
         C         C         0.77058   0.83607   0.83444   0.262907  
         C         C         0.82066   0.77674   0.83076   -0.423923           
         C         C         0.80952   0.88401   0.98508   -0.445035           
         C         C         0.75537   0.84620   0.69907   -0.445610           
         C         C         0.22152   0.16661   0.85225   0.261042  
         C         C         0.17372   0.22700   0.86463   -0.422762           
         C         C         0.23845   0.15393   0.98542   -0.446678           
         C         C         0.17881   0.12097   0.70094   -0.445376           
         H         H         0.86781   0.77979   0.83918   0.125701  
         H         H         0.79721   0.74039   0.72477   0.133126  
         H         H         0.83689   0.76626   0.92658   0.122655  
         H         H         0.77669   0.92762   0.00095   0.122565  
         H         H         0.85557   0.88661   0.98852   0.126294  
         H         H         0.82706   0.87262   0.08043   0.127757  
         H         H         0.72194   0.81633   0.59222   0.132242  
         H         H         0.80423   0.83808   0.69750   0.127388  
         H         H         0.73022   0.89049   0.69646   0.112799  
         H         H         0.12640   0.22517   0.85765   0.125949  
         H         H         0.15743   0.23968   0.77234   0.122118  
         H         H         0.19937   0.26158   0.97275   0.129839  
         H         H         0.27142   0.18387   0.09281   0.129916  
         H         H         0.26498   0.10933   0.98504   0.113007  
         H         H         0.18986   0.16048   0.98653   0.125315  
         H         H         0.15679   0.13451   0.60644   0.125816  
         H         H         0.13542   0.11780   0.70571   0.126007  
         H         H         0.20992   0.07694   0.67599   0.122684  
         C         C         0.78579   0.42797   0.84046   0.271234  
         C         C         0.83982   0.37171   0.81895   -0.427423           
         C         C         0.71401   0.41398   0.70303   -0.442347           
         C         C         0.78413   0.44234   0.98535   -0.438395           
         C         C         0.20441   0.57296   0.82190   0.269901  
         C         C         0.15179   0.63015   0.84515   -0.428791           
         C         C         0.20449   0.55814   0.67504   -0.440674           
         C         C         0.27711   0.58589   0.95729   -0.435017           
         H         H         0.82286   0.33618   0.80669   0.110867  
         H         H         0.89198   0.37669   0.91527   0.131442  
         H         H         0.84415   0.35861   0.71758   0.120817  
         H         H         0.67076   0.44999   0.71251   0.125813  
         H         H         0.70287   0.37563   0.69253   0.121342  
         H         H         0.71340   0.40401   0.59807   0.119568  
         H         H         0.83478   0.45179   0.08394   0.115799  
         H         H         0.77235   0.40474   0.97671   0.123172  
         H         H         0.74428   0.48030   0.00518   0.124791  
         H         H         0.16969   0.66492   0.85653   0.111949  
         H         H         0.14804   0.64387   0.94746   0.122541  
         H         H         0.09930   0.62590   0.74975   0.131189  
         H         H         0.23947   0.51723   0.64620   0.123261  
         H         H         0.22129   0.59320   0.68501   0.124214  
         H         H         0.15180   0.55395   0.58097   0.114320  
         H         H         0.27865   0.59655   0.06384   0.116492  
         H         H         0.28904   0.62341   0.96587   0.121189  
         H         H         0.31946   0.54899   0.94646   0.126874  
         C         C         0.34795   0.77827   0.87632   0.261647  
         C         C         0.36591   0.83185   0.89509   -0.428671           
         C         C         0.34517   0.79573   0.02251   -0.446469           
         C         C         0.27508   0.76915   0.73745   -0.432623           
         C         C         0.65755   0.23074   0.89313   0.261298  
         C         C         0.63567   0.18013   0.87810   -0.424456           
         C         C         0.71878   0.25143   0.05297   -0.445000           
         C         C         0.68305   0.20359   0.77346   -0.439656           
         H         H         0.32708   0.87065   0.91671   0.129411  
         H         H         0.36513   0.82618   0.79383   0.121737  
         H         H         0.41727   0.84160   0.99109   0.126747  
         H         H         0.33749   0.76006   0.02940   0.113561  
         H         H         0.30297   0.83291   0.03244   0.128772  
         H         H         0.39461   0.80919   0.12088   0.129818  
         H         H         0.27796   0.75396   0.63301   0.128046  
         H         H         0.23828   0.81077   0.74803   0.132046  
         H         H         0.25111   0.73708   0.72084   0.112222  
         H         H         0.68033   0.14437   0.89606   0.127225  
         H         H         0.59294   0.16252   0.76522   0.130753  
         H         H         0.61895   0.19395   0.96235   0.120242  
         H         H         0.73947   0.28635   0.07222   0.110239  
         H         H         0.76203   0.21452   0.07088   0.130924  
         H         H         0.70120   0.26929   0.13832   0.129462  
         H         H         0.64025   0.18792   0.65963   0.131930  
         H         H         0.72467   0.16588   0.79168   0.128093  
         H         H         0.70373   0.23372   0.77498   0.109171 

