
##########################################################################
#               Crystallographic Information Format file
#               Produced by PyCifRW module
#
#  This is a CIF file.  CIF has been adopted by the International
#  Union of Crystallography as the standard for data archiving and
#  transmission.
#
#  For information on this file format, follow the CIF links at
#  http://www.iucr.org
##########################################################################

data_image0

_cell_length_a                          37.6846
_cell_length_b                          36.9561
_cell_length_c                          8.17133
_cell_angle_alpha                       80.0326
_cell_angle_beta                        121.535
_cell_angle_gamma                       120.357
_symmetry_space_group_name_H-M          'P 1'
_space_group_name_Hall                  'P 1'
loop_
  _atom_site_type_symbol
  _atom_site_label
  _atom_site_fract_x
  _atom_site_fract_y
  _atom_site_fract_z
  _atom_site_charge
         C         C         0.49872   0.82381   0.83331   -0.007322           
         C         C         0.47225   0.84239   0.82864   0.077174  
         C         C         0.42365   0.87455   0.88982   -0.181192           
         C         C         0.39730   0.89174   0.87963   -0.123839           
         C         C         0.49339   0.75735   0.77638   0.209965  
         C         C         0.55011   0.67052   0.61880   -0.140693           
         C         C         0.57409   0.65428   0.60036   -0.122208           
         C         C         0.47466   0.77932   0.79730   -0.269761           
         N         N         0.54759   0.72361   0.73458   -0.271256           
         C         C         0.31877   0.98033   0.77577   -0.185773           
         C         C         0.30291   0.93688   0.78257   0.079062  
         C         C         0.16706   0.85167   0.74747   0.200735  
         C         C         0.25667   0.90758   0.77172   0.056570  
         O         O         0.46968   0.71442   0.73609   -0.144652           
         C         C         0.60483   0.32126   0.75577   -0.188560           
         C         C         0.05352   0.81379   0.72966   -0.002429           
         C         C         0.09567   0.83608   0.71089   0.084971  
         C         C         0.19254   0.89489   0.81785   -0.181934           
         C         C         0.23641   0.92201   0.83013   -0.125276           
         C         C         0.98703   0.81856   0.69585   0.209325  
         C         C         0.83422   0.75812   0.76663   -0.155090           
         C         C         0.79016   0.73258   0.75358   -0.123702           
         C         C         0.02716   0.83475   0.67872   -0.264181           
         N         N         0.89791   0.76894   0.72935   -0.268634           
         C         C         0.39086   0.99233   0.80316   -0.186374           
         C         C         0.36271   0.00870   0.78666   0.070144  
         C         C         0.40983   0.14283   0.77007   0.192227  
         C         C         0.37853   0.05443   0.77947   0.057306  
         O         O         0.96258   0.83936   0.65594   -0.144690           
         C         C         0.42668   0.69078   0.74448   -0.196045           
         C         C         0.47290   0.25745   0.73278   -0.001528           
         C         C         0.45003   0.21138   0.70583   0.093137  
         C         C         0.43087   0.12468   0.73588   -0.171079           
         C         C         0.41524   0.08163   0.73925   -0.126179           
         C         C         0.54327   0.32379   0.76139   0.209059  
         C         C         0.63542   0.48221   0.71156   -0.147413           
         C         C         0.65466   0.52531   0.69715   -0.130232           
         C         C         0.51575   0.27982   0.72917   -0.268964           
         N         N         0.58103   0.41687   0.75757   -0.288925           
         C         C         0.33146   0.92180   0.79395   -0.179422           
         C         C         0.37537   0.94885   0.80298   0.077058  
         C         C         0.45905   0.89687   0.83887   0.200283  
         C         C         0.40424   0.93146   0.81495   0.053560  
         O         O         0.58646   0.34541   0.77128   -0.143302           
         C         C         0.97597   0.87788   0.57155   -0.189576           
         C         C         0.53887   0.78070   0.79096   -0.006594           
         C         C         0.56259   0.76335   0.76236   0.080987  
         C         C         0.62502   0.73473   0.79644   -0.185086           
         C         C         0.64891   0.71817   0.77776   -0.125987           
         C         C         0.54520   0.84702   0.85738   0.212485  
         C         C         0.46727   0.93713   0.77987   -0.152992           
         C         C         0.43986   0.95361   0.76519   -0.128820           
         C         C         0.56356   0.82506   0.83347   -0.262764           
         N         N         0.48794   0.88253   0.84885   -0.272411           
         C         C         0.69876   0.61920   0.69437   -0.179822           
         C         C         0.71665   0.66268   0.67820   0.077036  
         C         C         0.85427   0.74106   0.72020   0.197096  
         C         C         0.76304   0.68907   0.68703   0.054348  
         O         O         0.56910   0.88984   0.90034   -0.142454           
         C         C         0.39456   0.28204   0.77466   -0.189184           
         C         C         0.97027   0.77818   0.75997   -0.005584           
         C         C         0.92665   0.75516   0.76824   0.076963  
         C         C         0.82760   0.69749   0.65432   -0.180949           
         C         C         0.78285   0.67234   0.63688   -0.124832           
         C         C         0.03821   0.77456   0.80370   0.205276  
         C         C         0.18763   0.83686   0.69241   -0.155437           
         C         C         0.23123   0.86432   0.70302   -0.126822           
         C         C         0.99704   0.75761   0.81335   -0.256179           
         N         N         0.12460   0.82282   0.74594   -0.272581           
         C         C         0.63260   0.61463   0.69288   -0.178316           
         C         C         0.65663   0.59450   0.70225   0.070188  
         C         C         0.59910   0.46061   0.75770   0.193763  
         C         C         0.63834   0.54906   0.72673   0.053830  
         O         O         0.06461   0.75465   0.86129   -0.153109           
         C         C         0.61398   0.91334   0.90654   -0.192090           
         C         C         0.52604   0.34754   0.78729   -0.004349           
         C         C         0.54816   0.39342   0.80093   0.084363  
         C         C         0.58387   0.48450   0.79483   -0.169013           
         C         C         0.60314   0.52749   0.77956   -0.127902           
         C         C         0.45628   0.28101   0.76406   0.198788  
         C         C         0.37326   0.11591   0.81074   -0.150358           
         C         C         0.35818   0.07295   0.81592   -0.133579           
         C         C         0.48288   0.32508   0.78949   -0.268994           
         N         N         0.42490   0.18624   0.78186   -0.284745           
         C         C         0.69123   0.68139   0.66864   -0.174739           
         C         C         0.64945   0.65788   0.67774   0.073656  
         C         C         0.57495   0.71101   0.71762   0.200574  
         C         C         0.62401   0.67739   0.68112   0.062099  
         O         O         0.41325   0.25856   0.75649   -0.149477           
         C         C         0.05782   0.72337   0.98989   -0.194146           
         H         H         0.43565   0.81896   0.79704   0.054632  
         H         H         0.41835   0.84445   0.94578   0.101975  
         H         H         0.37168   0.87455   0.92772   0.103055  
         H         H         0.51152   0.65269   0.55630   0.118391  
         H         H         0.55391   0.62332   0.51948   0.102514  
         H         H         0.43965   0.76199   0.78370   0.113344  
         H         H         0.29574   0.99199   0.75733   0.102725  
         H         H         0.58099   0.30146   0.61521   0.093961  
         H         H         0.61050   0.30133   0.87346   0.089483  
         H         H         0.63914   0.34466   0.76710   0.127532  
         H         H         0.10207   0.86737   0.66228   0.059325  
         H         H         0.17883   0.90642   0.87286   0.105898  
         H         H         0.25625   0.95461   0.89400   0.099906  
         H         H         0.85459   0.79148   0.81946   0.114075  
         H         H         0.77712   0.74646   0.80117   0.105437  
         H         H         0.03928   0.86479   0.62287   0.113042  
         H         H         0.42584   0.01381   0.81988   0.099591  
         H         H         0.39861   0.69804   0.63341   0.084497  
         H         H         0.43400   0.69640   0.88979   0.106963  
         H         H         0.41488   0.65759   0.71452   0.117682  
         H         H         0.45763   0.19972   0.61916   0.062721  
         H         H         0.45990   0.14435   0.70757   0.103192  
         H         H         0.43170   0.06886   0.70768   0.098983  
         H         H         0.64729   0.46391   0.68302   0.115751  
         H         H         0.68173   0.54037   0.65642   0.096511  
         H         H         0.52742   0.26132   0.70100   0.111746  
         H         H         0.31910   0.88818   0.79557   0.102818  
         H         H         0.95188   0.88882   0.55032   0.117682  
         H         H         0.97041   0.87212   0.43028   0.109239  
         H         H         0.01331   0.90188   0.66848   0.094315  
         H         H         0.59566   0.78790   0.76447   0.053855  
         H         H         0.64545   0.76546   0.88005   0.103084  
         H         H         0.68777   0.73604   0.84730   0.102255  
         H         H         0.49439   0.95410   0.73939   0.118571  
         H         H         0.44530   0.98374   0.70920   0.102767  
         H         H         0.59810   0.84245   0.84310   0.113874  
         H         H         0.71935   0.60500   0.70967   0.100487  
         H         H         0.36054   0.25828   0.76494   0.126316  
         H         H         0.38819   0.30199   0.65754   0.092271  
         H         H         0.41878   0.30190   0.91531   0.093014  
         H         H         0.91894   0.72320   0.81025   0.056718  
         H         H         0.84062   0.68407   0.60410   0.105000  
         H         H         0.76185   0.63936   0.57600   0.100668  
         H         H         0.16777   0.80374   0.63536   0.119408  
         H         H         0.24506   0.85234   0.65077   0.101001  
         H         H         0.98458   0.72730   0.86661   0.112701  
         H         H         0.60061   0.59692   0.70314   0.103175  
         H         H         0.62550   0.94656   0.93348   0.118636  
         H         H         0.60927   0.90729   0.76748   0.110118  
         H         H         0.64097   0.90588   0.02552   0.092211  
         H         H         0.53308   0.40630   0.84375   0.060913  
         H         H         0.55722   0.46981   0.83813   0.101711  
         H         H         0.59119   0.54477   0.81446   0.102747  
         H         H         0.35779   0.12971   0.84333   0.117192  
         H         H         0.33128   0.05387   0.85628   0.099455  
         H         H         0.47020   0.34365   0.80974   0.112949  
         H         H         0.70375   0.71470   0.65164   0.101611  
         H         H         0.02265   0.69469   0.91466   0.094027  
         H         H         0.06170   0.73667   0.11266   0.112690  
         H         H         0.08597   0.71537   0.04020   0.119324  
         C         C         0.47202   0.81260   0.33119   -0.008677           
         C         C         0.44590   0.83025   0.33793   0.081235  
         C         C         0.39203   0.85999   0.37880   -0.177121           
         C         C         0.36461   0.87708   0.35812   -0.120026           
         C         C         0.46464   0.74673   0.25197   0.212300  
         C         C         0.52035   0.65645   0.11456   -0.141502           
         C         C         0.54449   0.63830   0.11018   -0.126999           
         C         C         0.44613   0.76847   0.27604   -0.268874           
         N         N         0.51669   0.71366   0.19073   -0.276928           
         C         C         0.29851   0.97610   0.28984   -0.178889           
         C         C         0.27989   0.93237   0.29816   0.081422  
         C         C         0.14056   0.85406   0.24179   0.194752  
         C         C         0.23297   0.90581   0.28502   0.051095  
         O         O         0.43974   0.70388   0.20193   -0.146242           
         C         C         0.60461   0.31084   0.24501   -0.188017           
         C         C         0.02475   0.81586   0.20630   -0.005284           
         C         C         0.06793   0.83945   0.19489   0.076989  
         C         C         0.16703   0.89765   0.30672   -0.178958           
         C         C         0.21234   0.92263   0.32940   -0.123810           
         C         C         0.95662   0.81843   0.16699   0.207541  
         C         C         0.80574   0.75487   0.26497   -0.157759           
         C         C         0.76178   0.72756   0.25155   -0.126292           
         C         C         0.99766   0.83601   0.15567   -0.260125           
         N         N         0.87015   0.76866   0.22238   -0.269644           
         C         C         0.36339   0.98065   0.28019   -0.185159           
         C         C         0.34027   0.00075   0.28004   0.062989  
         C         C         0.39933   0.13554   0.25531   0.200590  
         C         C         0.35984   0.04668   0.26803   0.056496  
         O         O         0.92992   0.83790   0.11249   -0.150637           
         C         C         0.39937   0.67997   0.22814   -0.191502           
         C         C         0.47344   0.24818   0.23249   -0.004467           
         C         C         0.45006   0.20222   0.21465   0.086773  
         C         C         0.42708   0.11610   0.30620   -0.173552           
         C         C         0.40772   0.07282   0.31373   -0.118791           
         C         C         0.54406   0.31376   0.25754   0.203644  
         C         C         0.63877   0.48169   0.28216   -0.153194           
         C         C         0.65234   0.52429   0.27448   -0.120917           
         C         C         0.51658   0.26976   0.23064   -0.265897           
         N         N         0.58014   0.40885   0.24989   -0.279278           
         C         C         0.30560   0.91400   0.30739   -0.171515           
         C         C         0.34745   0.93750   0.29781   0.076660  
         C         C         0.43162   0.88374   0.35270   0.198295  
         C         C         0.37477   0.91832   0.30842   0.064012  
         O         O         0.58690   0.33521   0.26424   -0.146687           
         C         C         0.93743   0.87079   0.99160   -0.189181           
         C         C         0.51171   0.76962   0.28193   -0.004486           
         C         C         0.53663   0.75166   0.26757   0.080600  
         C         C         0.59352   0.72344   0.25080   -0.158421           
         C         C         0.61743   0.70521   0.24662   -0.117509           
         C         C         0.51980   0.83512   0.37022   0.214494  
         C         C         0.44229   0.92503   0.30522   -0.146622           
         C         C         0.41404   0.94148   0.28003   -0.126211           
         C         C         0.53778   0.81336   0.34261   -0.236939           
         N         N         0.46143   0.87013   0.36558   -0.261542           
         C         C         0.67564   0.61172   0.19433   -0.186390           
         C         C         0.69116   0.65500   0.18206   0.082176  
         C         C         0.82744   0.73977   0.21860   0.200156  
         C         C         0.73701   0.68401   0.18894   0.056056  
         O         O         0.55120   0.87668   0.45300   -0.202877           
         C         C         0.39582   0.27621   0.26325   -0.189275           
         C         C         0.94169   0.77889   0.23940   -0.004749           
         C         C         0.89950   0.75585   0.25815   0.087345  
         C         C         0.80260   0.69630   0.15389   -0.177089           
         C         C         0.75854   0.66927   0.14006   -0.121976           
         C         C         0.00860   0.77531   0.27015   0.208484  
         C         C         0.16125   0.83694   0.19990   -0.151924           
         C         C         0.20589   0.86233   0.21784   -0.120880           
         C         C         0.96846   0.75845   0.28783   -0.260078           
         N         N         0.09691   0.82610   0.23214   -0.268055           
         C         C         0.60788   0.60117   0.20146   -0.187423           
         C         C         0.63446   0.58428   0.20571   0.063678  
         C         C         0.59270   0.45158   0.24816   0.199686  
         C         C         0.62042   0.53909   0.22517   0.057936  
         O         O         0.03348   0.75495   0.30922   -0.144019           
         C         C         0.55050   0.90839   0.32121   -0.184719           
         C         C         0.52800   0.33808   0.28765   -0.001874           
         C         C         0.55072   0.38409   0.30846   0.091012  
         C         C         0.56058   0.46598   0.20061   -0.178709           
         C         C         0.57413   0.50863   0.18804   -0.119520           
         C         C         0.45700   0.27255   0.25926   0.210627  
         C         C         0.35174   0.10984   0.21290   -0.151388           
         C         C         0.33230   0.06638   0.21595   -0.124085           
         C         C         0.48502   0.31647   0.29030   -0.264187           
         N         N         0.41667   0.17904   0.25532   -0.286508           
         C         C         0.66272   0.67019   0.17100   -0.178495           
         C         C         0.62121   0.64395   0.18117   0.077086  
         C         C         0.54429   0.69921   0.18695   0.204069  
         C         C         0.59390   0.66223   0.17790   0.069406  
         O         O         0.41380   0.25150   0.24917   -0.144918           
         C         C         0.02029   0.71606   0.39162   -0.188052           
         H         H         0.40936   0.80631   0.30501   0.053685  
         H         H         0.38370   0.82852   0.42266   0.102472  
         H         H         0.33555   0.85831   0.38689   0.102915  
         H         H         0.48230   0.63792   0.06443   0.110855  
         H         H         0.52479   0.60531   0.05099   0.101420  
         H         H         0.41010   0.75126   0.25242   0.110019  
         H         H         0.27984   0.99096   0.28878   0.101708  
         H         H         0.57981   0.29088   0.10448   0.095501  
         H         H         0.61093   0.29100   0.36264   0.093081  
         H         H         0.63861   0.33409   0.25345   0.126630  
         H         H         0.07498   0.87127   0.15211   0.057437  
         H         H         0.15325   0.91128   0.35135   0.104701  
         H         H         0.23293   0.95561   0.38965   0.103188  
         H         H         0.82503   0.78822   0.31731   0.119744  
         H         H         0.74722   0.73993   0.29757   0.100648  
         H         H         0.00965   0.86637   0.10210   0.113586  
         H         H         0.39448   -0.00083  0.26450   0.099915  
         H         H         0.36958   0.68582   0.12461   0.093991  
         H         H         0.40996   0.68715   0.37722   0.107720  
         H         H         0.38804   0.64677   0.20178   0.121419  
         H         H         0.46375   0.18848   0.16777   0.065998  
         H         H         0.46442   0.13535   0.34552   0.108015  
         H         H         0.43070   0.05914   0.36044   0.103486  
         H         H         0.66360   0.47089   0.31546   0.121419  
         H         H         0.68864   0.54662   0.30629   0.102796  
         H         H         0.52820   0.25062   0.20681   0.116250  
         H         H         0.29241   0.88058   0.32185   0.102833  
         H         H         0.90936   0.87866   0.94516   0.118852  
         H         H         0.93400   0.85920   0.86581   0.112155  
         H         H         0.97258   0.89922   0.07175   0.092361  
         H         H         0.57521   0.77395   0.33031   0.058139  
         H         H         0.61361   0.75658   0.30787   0.104553  
         H         H         0.65572   0.72432   0.30234   0.101566  
         H         H         0.47285   0.94328   0.28510   0.119148  
         H         H         0.42299   0.97299   0.23687   0.104868  
         H         H         0.57445   0.83131   0.37252   0.125579  
         H         H         0.69648   0.59930   0.19612   0.100979  
         H         H         0.36124   0.25317   0.25025   0.127455  
         H         H         0.39063   0.29615   0.14538   0.090053  
         H         H         0.41961   0.29603   0.40377   0.096817  
         H         H         0.89348   0.72455   0.30619   0.056318  
         H         H         0.81699   0.68438   0.10457   0.105610  
         H         H         0.73968   0.63635   0.08274   0.102001  
         H         H         0.14090   0.80358   0.14701   0.114741  
         H         H         0.21941   0.84826   0.17401   0.107323  
         H         H         0.95650   0.72810   0.34159   0.112187  
         H         H         0.57780   0.58152   0.22341   0.101523  
         H         H         0.51647   0.90827   0.25290   0.096817  
         H         H         0.55623   0.90303   0.21100   0.101877  
         H         H         0.58000   0.93868   0.41116   0.107240  
         H         H         0.53932   0.39679   0.37328   0.065157  
         H         H         0.52427   0.44322   0.16803   0.103316  
         H         H         0.54785   0.51829   0.14538   0.104076  
         H         H         0.33058   0.12496   0.17698   0.120949  
         H         H         0.29509   0.04743   0.17830   0.101624  
         H         H         0.47372   0.33556   0.31690   0.113811  
         H         H         0.67233   0.70291   0.14937   0.098088  
         H         H         0.98299   0.69200   0.29410   0.094912  
         H         H         0.02601   0.72130   0.53398   0.111107  
         H         H         0.04448   0.70548   0.41035   0.116388 

