
##########################################################################
#               Crystallographic Information Format file
#               Produced by PyCifRW module
#
#  This is a CIF file.  CIF has been adopted by the International
#  Union of Crystallography as the standard for data archiving and
#  transmission.
#
#  For information on this file format, follow the CIF links at
#  http://www.iucr.org
##########################################################################

data_image0

_cell_length_a                          25.5419
_cell_length_b                          25.5914
_cell_length_c                          10.8005
_cell_angle_alpha                       64.9159
_cell_angle_beta                        75.5144
_cell_angle_gamma                       90.885
_symmetry_space_group_name_H-M          'P 1'
_space_group_name_Hall                  'P 1'
loop_
  _atom_site_type_symbol
  _atom_site_label
  _atom_site_fract_x
  _atom_site_fract_y
  _atom_site_fract_z
  _atom_site_charge
         C         C         0.30378   0.01848   0.25299   0.047047  
         C         C         0.69725   0.98450   0.24851   0.052423  
         C         C         0.69525   0.98790   0.74311   0.051136  
         C         C         0.30365   0.01935   0.76164   0.053412  
         C         C         0.26064   0.01109   0.37123   -0.129266           
         C         C         0.71609   0.93957   0.35077   -0.138442           
         C         C         0.73695   0.97922   0.64360   -0.132291           
         C         C         0.28546   0.06702   0.66545   -0.141187           
         C         C         0.20657   0.00488   0.36962   -0.135498           
         C         C         0.77144   0.94056   0.34285   -0.137430           
         C         C         0.79086   0.98158   0.64982   -0.136750           
         C         C         0.23223   0.06382   0.65630   -0.141487           
         C         C         0.48032   0.06487   0.18319   -0.183420           
         C         C         0.53671   0.97135   0.18924   -0.172839           
         C         C         0.52404   0.94628   0.78779   -0.179987           
         C         C         0.45764   0.02111   0.86098   -0.177469           
         C         C         0.19404   0.00863   0.24672   0.088914  
         C         C         0.81031   0.98602   0.23090   0.089338  
         C         C         0.80403   0.99233   0.75687   0.085366  
         C         C         0.19417   0.01364   0.74861   0.084274  
         C         C         0.13628   0.00464   0.24245   -0.065462           
         C         C         0.86907   0.98976   0.22568   -0.075334           
         C         C         0.86085   0.99405   0.76832   -0.067308           
         C         C         0.13595   0.01037   0.75072   -0.078769           
         C         C         0.35984   0.02082   0.26336   0.072787  
         C         C         0.63924   0.98288   0.25755   0.057490  
         C         C         0.63899   0.98547   0.73576   0.066749  
         C         C         0.36008   0.02208   0.76523   0.057139  
         C         C         0.23734   0.01754   0.12658   -0.140207           
         C         C         0.79117   0.02981   0.12679   -0.127130           
         C         C         0.76196   0.00107   0.85565   -0.143041           
         C         C         0.21285   0.96653   0.84603   -0.132409           
         C         C         0.29134   0.02110   0.13043   -0.108472           
         C         C         0.73605   0.03011   0.13744   -0.104101           
         C         C         0.70839   -0.00095  0.84958   -0.106505           
         C         C         0.26634   0.96861   0.85098   -0.110891           
         N         N         0.39949   0.01257   0.17744   -0.267878           
         N         N         0.61963   0.02675   0.17649   -0.278340           
         N         N         0.60022   0.99311   0.82579   -0.277303           
         N         N         0.38190   0.97552   0.82000   -0.280079           
         C         C         0.48246   0.96938   0.18857   -0.151817           
         C         C         0.53554   0.06825   0.17618   -0.156079           
         C         C         0.51161   0.02361   0.86338   -0.139685           
         C         C         0.46935   0.94193   0.79176   -0.157015           
         C         C         0.45304   0.01556   0.18774   0.195787  
         C         C         0.56416   0.02085   0.18400   0.191070  
         C         C         0.54618   0.98769   0.82241   0.194667  
         C         C         0.43583   0.98056   0.82376   0.197221  
         N         N         0.06268   0.94539   0.22719   -0.410657           
         N         N         0.94407   0.05036   0.23292   -0.415916           
         N         N         0.93861   0.05267   0.77148   -0.411998           
         N         N         0.05585   0.94795   0.76707   -0.417765           
         C         C         0.11632   0.95926   0.21719   0.185158  
         C         C         0.89263   0.04106   0.22177   0.189963  
         C         C         0.88634   0.04470   0.76365   0.185033  
         C         C         0.11027   0.95988   0.75448   0.187577  
         C         C         0.14954   0.91806   0.18619   -0.189663           
         C         C         0.86341   0.09065   0.21255   -0.184931           
         C         C         0.85976   0.09639   0.74697   -0.187079           
         C         C         0.13944   0.91236   0.74705   -0.191367           
         C         C         0.06086   0.89551   0.20900   0.187396  
         C         C         0.94765   0.10411   0.23258   0.188553  
         C         C         0.94567   0.10810   0.76030   0.185173  
         C         C         0.04981   0.89352   0.77115   0.189497  
         C         C         0.11533   0.87880   0.17834   -0.190649           
         C         C         0.89838   0.13054   0.21361   -0.186182           
         C         C         0.89647   0.13542   0.74745   -0.186972           
         C         C         0.10172   0.87048   0.76199   -0.187216           
         H         H         0.26959   0.00907   0.46649   0.101455  
         H         H         0.68676   0.90403   0.43830   0.105778  
         H         H         0.72713   0.97095   0.56042   0.095891  
         H         H         0.31409   0.10653   0.59647   0.107478  
         H         H         0.17357   0.99676   0.46411   0.105943  
         H         H         0.78508   0.90673   0.42571   0.113576  
         H         H         0.82283   0.97547   0.57127   0.110985  
         H         H         0.21970   0.10043   0.57749   0.114021  
         H         H         0.45860   0.10166   0.17781   0.112543  
         H         H         0.55949   0.93626   0.18455   0.118138  
         H         H         0.54983   0.91641   0.76273   0.108277  
         H         H         0.43079   0.04758   0.89735   0.111639  
         H         H         0.22832   0.02169   0.02969   0.106377  
         H         H         0.82086   0.06394   0.03663   0.106602  
         H         H         0.77179   0.00824   0.93972   0.097154  
         H         H         0.18313   0.92895   0.92165   0.106304  
         H         H         0.32439   0.02629   0.03881   0.105286  
         H         H         0.72164   0.06435   0.05727   0.117184  
         H         H         0.67601   0.00580   0.92630   0.110865  
         H         H         0.28010   0.93194   0.92696   0.116949  
         H         H         0.46184   0.93297   0.18470   0.124726  
         H         H         0.55753   0.10691   0.16800   0.120017  
         H         H         0.52854   0.05271   0.89831   0.118695  
         H         H         0.45137   0.90956   0.76806   0.119776  
         H         H         0.19307   0.91968   0.16934   0.126171  
         H         H         0.82179   0.09437   0.20613   0.127574  
         H         H         0.81891   0.10191   0.73632   0.128800  
         H         H         0.18283   0.91156   0.72980   0.126845  
         H         H         0.12562   0.84339   0.15028   0.129693  
         H         H         0.89169   0.17398   0.20109   0.129316  
         H         H         0.89206   0.17890   0.73732   0.127062  
         H         H         0.10838   0.82793   0.76852   0.127899  
         H         H         0.96696   0.96677   0.77904   0.269259  
         H         H         0.02895   0.03256   0.76212   0.270866  
         H         H         0.02807   0.03097   0.23244   0.270746  
         H         H         0.97783   0.96501   0.22344   0.269939  
         C         C         0.98681   0.29803   0.25968   0.054673  
         C         C         0.03187   0.69269   0.23711   0.056087  
         C         C         0.00500   0.69643   0.76286   0.058601  
         C         C         0.98328   0.30699   0.74591   0.048243  
         C         C         0.94175   0.25369   0.33980   -0.128175           
         C         C         0.05469   0.71162   0.31936   -0.135463           
         C         C         0.04549   0.74377   0.66753   -0.130970           
         C         C         0.98621   0.29830   0.62433   -0.128027           
         C         C         0.94349   0.19925   0.33993   -0.128874           
         C         C         0.04715   0.76575   0.31710   -0.133976           
         C         C         0.04374   0.79787   0.66865   -0.127317           
         C         C         0.98996   0.24357   0.62766   -0.143195           
         C         C         0.97495   0.47471   0.19179   -0.168638           
         C         C         0.06940   0.53822   0.17213   -0.181273           
         C         C         0.01510   0.51724   0.84945   -0.174646           
         C         C         0.93861   0.46593   0.77350   -0.179206           
         C         C         0.98942   0.18729   0.25746   0.087481  
         C         C         0.01818   0.80384   0.22852   0.091471  
         C         C         0.00311   0.80611   0.77143   0.086968  
         C         C         0.99140   0.19593   0.75381   0.087869  
         C         C         0.99201   0.13008   0.25336   -0.080174           
         C         C         0.01290   0.86234   0.22288   -0.067334           
         C         C         0.00139   0.86330   0.77688   -0.075890           
         C         C         0.99334   0.13675   0.75980   -0.061972           
         C         C         0.98548   0.35434   0.26287   0.069152  
         C         C         0.03861   0.63593   0.23902   0.066256  
         C         C         0.00732   0.64100   0.75417   0.072177  
         C         C         0.97982   0.36534   0.73706   0.069280  
         C         C         0.03386   0.23260   0.17426   -0.131855           
         C         C         0.99601   0.78471   0.14506   -0.135064           
         C         C         0.96300   0.75790   0.86880   -0.132811           
         C         C         0.98968   0.20466   0.87464   -0.138465           
         C         C         0.03310   0.28614   0.17816   -0.107895           
         C         C         0.00185   0.72998   0.15148   -0.110692           
         C         C         0.96302   0.70467   0.86291   -0.108775           
         C         C         0.98572   0.25920   0.87159   -0.105718           
         N         N         0.02816   0.39375   0.20189   -0.293581           
         N         N         0.01396   0.61726   0.17125   -0.279668           
         N         N         0.96550   0.60196   0.80467   -0.282498           
         N         N         0.98601   0.37853   0.83561   -0.279856           
         C         C         0.07098   0.48262   0.18053   -0.150198           
         C         C         0.97381   0.53091   0.17868   -0.149611           
         C         C         0.93411   0.52077   0.76841   -0.161508           
         C         C         0.01800   0.46128   0.86172   -0.154146           
         C         C         0.02351   0.44901   0.19592   0.188932  
         C         C         0.02016   0.56268   0.17503   0.200166  
         C         C         0.97273   0.54784   0.80386   0.191405  
         C         C         0.98081   0.43520   0.82059   0.193980  
         N         N         0.05391   0.05617   0.25088   -0.258987           
         N         N         0.94979   0.93524   0.22610   -0.257540           
         N         N         0.93907   0.93656   0.78279   -0.255188           
         N         N         0.05572   0.06321   0.75994   -0.258090           
         C         C         0.04015   0.10498   0.26927   0.182414  
         C         C         0.96114   0.88174   0.23146   0.183695  
         C         C         0.95040   0.88410   0.78260   0.179775  
         C         C         0.04321   0.11494   0.76315   0.178139  
         C         C         0.08513   0.12642   0.30046   -0.183304           
         C         C         0.91103   0.85179   0.24284   -0.182243           
         C         C         0.90069   0.85645   0.78419   -0.189635           
         C         C         0.09183   0.14346   0.76334   -0.177324           
         C         C         0.10621   0.04738   0.26327   0.177878  
         C         C         0.89586   0.94143   0.22955   0.180530  
         C         C         0.88596   0.94413   0.78099   0.181966  
         C         C         0.10931   0.05734   0.75781   0.181408  
         C         C         0.12548   0.09198   0.29532   -0.180758           
         C         C         0.87209   0.88866   0.23695   -0.184724           
         C         C         0.86140   0.89219   0.78695   -0.182701           
         C         C         0.13176   0.10810   0.76251   -0.190171           
         H         H         0.90587   0.26202   0.40445   0.109726  
         H         H         0.07784   0.68333   0.38695   0.105467  
         H         H         0.07842   0.73750   0.59064   0.106093  
         H         H         0.98571   0.33521   0.52585   0.095796  
         H         H         0.90902   0.16496   0.40706   0.112969  
         H         H         0.06353   0.77971   0.38361   0.101043  
         H         H         0.07346   0.83465   0.58775   0.117174  
         H         H         0.99246   0.23726   0.53290   0.103817  
         H         H         0.93923   0.45167   0.19046   0.118648  
         H         H         0.10649   0.56408   0.15794   0.113192  
         H         H         0.04360   0.53656   0.88353   0.109624  
         H         H         0.90849   0.44524   0.74641   0.111948  
         H         H         0.06890   0.22476   0.10604   0.112297  
         H         H         0.97551   0.81421   0.07171   0.099707  
         H         H         0.93202   0.76258   0.95181   0.109712  
         H         H         0.99090   0.16756   0.97206   0.101387  
         H         H         0.06747   0.32049   0.11497   0.115579  
         H         H         0.98468   0.71454   0.08877   0.101312  
         H         H         0.93183   0.66812   0.93878   0.115933  
         H         H         0.98369   0.26595   0.96542   0.104766  
         H         H         0.10878   0.46360   0.17576   0.119806  
         H         H         0.93733   0.55201   0.17027   0.123176  
         H         H         0.90094   0.54415   0.73559   0.121966  
         H         H         0.04874   0.43613   0.90401   0.121162  
         H         H         0.08634   0.16288   0.32635   0.137980  
         H         H         0.90628   0.80797   0.25287   0.137169  
         H         H         0.89584   0.81499   0.78127   0.135919  
         H         H         0.09495   0.18559   0.76408   0.139109  
         H         H         0.16563   0.09664   0.30960   0.136239  
         H         H         0.83041   0.88034   0.23721   0.132875  
         H         H         0.81916   0.88375   0.79251   0.135451  
         H         H         0.17287   0.11581   0.76648   0.133641  
         H         H         0.97313   0.39820   0.63807   0.069287  
         H         H         0.38394   0.06532   0.71456   0.071056  
         H         H         0.04775   0.63440   0.70127   0.064183  
         H         H         0.63139   0.97768   0.64855   0.066717  
         H         H         0.06376   0.60923   0.30465   0.072214  
         H         H         0.61255   0.94267   0.33838   0.069239  
         H         H         0.94601   0.36130   0.32026   0.065404  
         H         H         0.36561   0.02783   0.35346   0.072090 

