
##########################################################################
#               Crystallographic Information Format file
#               Produced by PyCifRW module
#
#  This is a CIF file.  CIF has been adopted by the International
#  Union of Crystallography as the standard for data archiving and
#  transmission.
#
#  For information on this file format, follow the CIF links at
#  http://www.iucr.org
##########################################################################

data_image0

_cell_length_a                          64.0968
_cell_length_b                          36.56
_cell_length_c                          7.89003
_cell_angle_alpha                       93.1668
_cell_angle_beta                        64.0829
_cell_angle_gamma                       90.1254
_symmetry_space_group_name_H-M          'P 1'
_space_group_name_Hall                  'P 1'
loop_
  _atom_site_type_symbol
  _atom_site_label
  _atom_site_fract_x
  _atom_site_fract_y
  _atom_site_fract_z
  _atom_site_charge
         C         C         0.73204   0.14014   0.25581   0.069876  
         C         C         0.56086   0.00523   0.18100   0.051140  
         C         C         0.70721   0.80895   0.29228   0.012059  
         C         C         0.22975   0.63900   0.30008   0.085351  
         C         C         0.05983   0.51787   0.19978   0.050322  
         C         C         0.21193   0.30856   0.21775   0.051636  
         C         C         0.26901   0.13889   0.24138   0.064218  
         C         C         0.44102   0.00945   0.29437   0.061150  
         C         C         0.29121   0.80714   0.20903   0.043664  
         C         C         0.76883   0.63979   0.23294   0.084573  
         C         C         0.93954   0.51143   0.32199   0.062983  
         C         C         0.79151   0.30860   0.25234   0.083377  
         N         N         0.72397   0.17318   0.27290   -0.261580           
         N         N         0.54447   0.98170   0.24699   -0.260900           
         N         N         0.72838   0.80344   0.26672   -0.240891           
         N         N         0.22122   0.67191   0.32279   -0.256582           
         N         N         0.04424   0.49282   0.24805   -0.266496           
         N         N         0.23025   0.30393   0.24520   -0.256357           
         N         N         0.27641   0.17205   0.23336   -0.260950           
         N         N         0.45646   0.98318   0.24765   -0.268702           
         N         N         0.26936   0.80320   0.25564   -0.249969           
         N         N         0.77607   0.67279   0.23409   -0.255926           
         N         N         0.95574   0.48621   0.26122   -0.262120           
         N         N         0.77024   0.30385   0.28151   -0.256877           
         C         C         0.73707   0.20332   0.27898   0.103521  
         C         C         0.52327   0.98526   0.23987   0.111462  
         C         C         0.73834   0.76941   0.26001   0.086428  
         C         C         0.23472   0.70229   0.31140   0.116733  
         C         C         0.02246   0.49576   0.25211   0.107496  
         C         C         0.24026   0.26959   0.23532   0.103505  
         C         C         0.26339   0.20238   0.23253   0.102092  
         C         C         0.47792   0.98675   0.24953   0.115691  
         C         C         0.25932   0.76905   0.26817   0.111864  
         C         C         0.76270   0.70307   0.24003   0.124823  
         C         C         0.97696   0.49123   0.26674   0.120518  
         C         C         0.76098   0.26942   0.28234   0.109133  
         C         C         0.72598   0.23285   0.41118   -0.173837           
         C         C         0.51111   0.95280   0.24426   -0.154376           
         C         C         0.76243   0.76509   0.14378   -0.151741           
         C         C         0.22470   0.73356   0.43301   -0.151983           
         C         C         0.00928   0.46362   0.29993   -0.145460           
         C         C         0.26470   0.26599   0.14762   -0.156759           
         C         C         0.27577   0.23340   0.14483   -0.151409           
         C         C         0.48957   0.95359   0.24421   -0.147191           
         C         C         0.23665   0.76584   0.41350   -0.167664           
         C         C         0.77415   0.73277   0.13286   -0.164015           
         C         C         0.98762   0.46092   0.30295   -0.162937           
         C         C         0.73757   0.26488   0.41061   -0.152020           
         H         H         0.74882   0.13430   0.25640   0.073876  
         H         H         0.55996   0.02873   0.10344   0.066953  
         H         H         0.69540   0.78649   0.29981   0.051953  
         H         H         0.24688   0.63343   0.29375   0.077764  
         H         H         0.05737   0.54491   0.15720   0.078251  
         H         H         0.20386   0.28584   0.17295   0.066681  
         H         H         0.25247   0.13225   0.23877   0.073131  
         H         H         0.44324   0.03692   0.34554   0.077149  
         H         H         0.30325   0.78364   0.17928   0.070650  
         H         H         0.75267   0.63388   0.22191   0.082088  
         H         H         0.94100   0.53748   0.39163   0.073890  
         H         H         0.80325   0.28581   0.23992   0.074085  
         H         H         0.70804   0.22978   0.51257   0.133776  
         H         H         0.51953   0.92714   0.24559   0.124433  
         H         H         0.77121   0.78806   0.06179   0.126639  
         H         H         0.20720   0.73147   0.54441   0.129029  
         H         H         0.01731   0.44063   0.33255   0.122783  
         H         H         0.27448   0.28979   0.08218   0.129553  
         H         H         0.29459   0.23081   0.07705   0.125144  
         H         H         0.48054   0.92848   0.24252   0.122254  
         H         H         0.22898   0.78966   0.50995   0.127465  
         H         H         0.79262   0.72927   0.04187   0.128709  
         H         H         0.97809   0.43566   0.33633   0.128564  
         H         H         0.72887   0.28780   0.51097   0.133263  
         C         C         0.77234   0.23983   0.15047   0.114373  
         C         C         0.98965   0.52373   0.22139   0.076366  
         C         C         0.73873   0.70725   0.36148   0.118252  
         C         C         0.26917   0.73821   0.14196   0.065680  
         C         C         0.48965   0.01954   0.25264   0.108847  
         C         C         0.23886   0.20603   0.32581   0.102480  
         C         C         0.22769   0.23896   0.32493   0.077978  
         C         C         0.01203   0.52594   0.20995   0.128478  
         C         C         0.25741   0.70515   0.16586   0.114984  
         C         C         0.72681   0.73979   0.36849   0.088880  
         C         C         0.51193   0.01863   0.24392   0.090586  
         C         C         0.76033   0.20777   0.14687   0.052566  
         O         O         0.79476   0.24263   0.01542   -0.421955           
         O         O         0.98166   0.55559   0.17712   -0.467777           
         O         O         0.72710   0.67968   0.47550   -0.429200           
         O         O         0.29069   0.73900   0.98249   -0.464750           
         O         O         0.47935   0.05356   0.26778   -0.427818           
         O         O         0.22547   0.17791   0.42532   -0.431434           
         O         O         0.20372   0.23915   0.42691   -0.461702           
         O         O         0.02359   0.55811   0.15049   -0.431936           
         O         O         0.26777   0.67582   0.04002   -0.424233           
         O         O         0.70350   0.74092   0.49563   -0.456510           
         O         O         0.52099   0.05304   0.24978   -0.465688           
         O         O         0.77251   0.18156   -0.00083  -0.467014           
         C         C         0.78828   0.37614   0.23156   -0.105459           
         C         C         0.91324   0.47258   0.23375   -0.104072           
         C         C         0.80279   0.61312   0.26310   -0.111585           
         C         C         0.28841   0.87512   0.19996   -0.105381           
         C         C         0.41410   0.96933   0.21803   -0.111425           
         C         C         0.30356   0.11162   0.26507   -0.113635           
         C         C         0.21183   0.37659   0.27211   -0.102268           
         C         C         0.08753   0.47571   0.24471   -0.115198           
         C         C         0.19610   0.61177   0.26467   -0.110795           
         C         C         0.71101   0.87692   0.30060   -0.102975           
         C         C         0.58782   0.96859   0.26195   -0.107012           
         C         C         0.69796   0.11228   0.22736   -0.108364           
         C         C         0.79698   0.41097   0.22866   -0.098938           
         C         C         0.89219   0.46784   0.22660   -0.096091           
         C         C         0.81545   0.58291   0.26847   -0.095069           
         C         C         0.29730   0.90965   0.20270   -0.096330           
         C         C         0.39285   0.96408   0.21475   -0.095352           
         C         C         0.31622   0.08101   0.26661   -0.095201           
         C         C         0.20254   0.41100   0.27616   -0.099378           
         C         C         0.10888   0.46877   0.24288   -0.094797           
         C         C         0.18391   0.58139   0.25012   -0.095821           
         C         C         0.70274   0.91154   0.29419   -0.096732           
         C         C         0.60893   0.96467   0.26853   -0.091449           
         C         C         0.68532   0.08171   0.22300   -0.095100           
         H         H         0.77192   0.37177   0.22375   0.115169  
         H         H         0.92645   0.45083   0.18513   0.115274  
         H         H         0.80812   0.64089   0.27847   0.114355  
         H         H         0.27183   0.87164   0.19501   0.116493  
         H         H         0.42741   0.94772   0.16915   0.112826  
         H         H         0.30930   0.13917   0.27901   0.115398  
         H         H         0.22703   0.37332   0.29813   0.113659  
         H         H         0.07437   0.45491   0.28110   0.113347  
         H         H         0.19026   0.63940   0.25912   0.115017  
         H         H         0.72734   0.87304   0.30896   0.115593  
         H         H         0.57513   0.94705   0.30368   0.116498  
         H         H         0.69214   0.13965   0.21724   0.116588  
         H         H         0.78766   0.43489   0.21849   0.112402  
         H         H         0.88817   0.44211   0.17294   0.114253  
         H         H         0.83111   0.58605   0.28833   0.110797  
         H         H         0.28794   0.93411   0.19906   0.113203  
         H         H         0.38885   0.93810   0.16311   0.112773  
         H         H         0.33214   0.08377   0.28299   0.110906  
         H         H         0.21033   0.43557   0.30459   0.111850  
         H         H         0.11305   0.44234   0.27859   0.113844  
         H         H         0.16808   0.58423   0.23299   0.111142  
         H         H         0.71236   0.93585   0.29799   0.112875  
         H         H         0.61355   0.93977   0.31462   0.111023  
         H         H         0.66927   0.08425   0.20890   0.112750  
         C         C         0.77505   0.57277   0.22131   -0.126895           
         C         C         0.82205   0.35046   0.25006   -0.130949           
         C         C         0.90113   0.53468   0.36765   -0.129357           
         C         C         0.27497   0.07202   0.23249   -0.130776           
         C         C         0.32258   0.84774   0.20415   -0.141046           
         C         C         0.40214   0.03168   0.34634   -0.134682           
         C         C         0.22498   0.57190   0.28636   -0.126371           
         C         C         0.18177   0.34891   0.20289   -0.128665           
         C         C         0.09905   0.53750   0.15354   -0.138339           
         C         C         0.72684   0.07310   0.25299   -0.127707           
         C         C         0.67683   0.85035   0.29008   -0.146965           
         C         C         0.59850   0.02925   0.14587   -0.130203           
         C         C         0.78773   0.54241   0.22679   -0.102380           
         C         C         0.83067   0.38542   0.24937   -0.097156           
         C         C         0.88027   0.53032   0.35528   -0.100129           
         C         C         0.28772   0.04131   0.23259   -0.102345           
         C         C         0.33130   0.88242   0.21090   -0.097320           
         C         C         0.38100   0.02670   0.33979   -0.102660           
         C         C         0.21268   0.54137   0.27307   -0.103988           
         C         C         0.17227   0.38348   0.20917   -0.096093           
         C         C         0.12029   0.53086   0.15565   -0.102325           
         C         C         0.71408   0.04246   0.25000   -0.101547           
         C         C         0.66863   0.88504   0.28178   -0.090828           
         C         C         0.61935   0.02587   0.15873   -0.099826           
         H         H         0.75952   0.56916   0.19943   0.108012  
         H         H         0.83159   0.32676   0.26041   0.107983  
         H         H         0.90455   0.56022   0.42773   0.106552  
         H         H         0.25897   0.06872   0.21718   0.107235  
         H         H         0.33239   0.82351   0.20488   0.100749  
         H         H         0.40570   0.05770   0.40140   0.107528  
         H         H         0.24091   0.56857   0.30206   0.106464  
         H         H         0.17402   0.32459   0.17074   0.106104  
         H         H         0.09531   0.56401   0.11507   0.107571  
         H         H         0.74291   0.06999   0.26692   0.107409  
         H         H         0.66679   0.82635   0.28863   0.099113  
         H         H         0.59458   0.05384   0.09234   0.106592  
         H         H         0.78237   0.51472   0.21082   0.113782  
         H         H         0.84686   0.38977   0.25985   0.111576  
         H         H         0.86723   0.55228   0.40218   0.114524  
         H         H         0.28200   0.01378   0.21830   0.113375  
         H         H         0.34772   0.88594   0.21864   0.114788  
         H         H         0.36789   0.04858   0.38668   0.115994  
         H         H         0.21865   0.51380   0.27765   0.113695  
         H         H         0.15711   0.38676   0.18281   0.111948  
         H         H         0.13322   0.55197   0.12207   0.113845  
         H         H         0.71988   0.01514   0.26062   0.114160  
         H         H         0.65237   0.88889   0.27239   0.113430  
         H         H         0.63180   0.04774   0.11960   0.113759  
         C         C         0.82144   0.51524   0.25954   0.370447  
         C         C         0.82675   0.45330   0.24605   0.375891  
         C         C         0.85336   0.49142   0.27439   0.369477  
         C         C         0.32197   0.01294   0.25183   0.369175  
         C         C         0.32730   0.95079   0.22630   0.373292  
         C         C         0.35389   0.98784   0.26249   0.369683  
         C         C         0.17888   0.51380   0.23956   0.370201  
         C         C         0.17392   0.45203   0.23874   0.374357  
         C         C         0.14748   0.49003   0.21230   0.370915  
         C         C         0.67937   0.01403   0.23569   0.373605  
         C         C         0.67367   0.95262   0.26272   0.371563  
         C         C         0.64709   0.98911   0.22938   0.372347  
         C         C         0.78236   0.60844   0.24009   0.057300  
         C         C         0.80063   0.34539   0.24401   0.061989  
         C         C         0.91789   0.50602   0.30647   0.058570  
         C         C         0.28270   0.10761   0.24774   0.061074  
         C         C         0.30084   0.84357   0.20262   0.061464  
         C         C         0.41906   0.00320   0.28490   0.063349  
         C         C         0.21674   0.60740   0.28406   0.058124  
         C         C         0.20176   0.34497   0.23233   0.057596  
         C         C         0.08219   0.51022   0.20000   0.065353  
         C         C         0.71886   0.10839   0.24336   0.054509  
         C         C         0.69830   0.84570   0.29562   0.067346  
         C         C         0.58244   0.00083   0.19811   0.064824  
         C         C         0.80801   0.54719   0.25123   0.005797  
         C         C         0.81817   0.41607   0.23927   0.004826  
         C         C         0.87553   0.49671   0.28606   0.011252  
         C         C         0.30851   0.04544   0.24979   0.002831  
         C         C         0.31870   0.91383   0.21101   0.003526  
         C         C         0.37608   0.99281   0.27416   0.005478  
         C         C         0.19201   0.54585   0.25511   0.004878  
         C         C         0.18275   0.41497   0.24359   0.011042  
         C         C         0.12546   0.49641   0.20073   0.000005  
         C         C         0.69314   0.04644   0.23589   0.006709  
         C         C         0.68166   0.91601   0.28159   0.004490  
         C         C         0.62489   0.99334   0.21814   0.006994  
         N         N         0.84090   0.52157   0.28108   -0.410395           
         N         N         0.81351   0.48169   0.24377   -0.408613           
         N         N         0.84712   0.45675   0.25616   -0.408349           
         N         N         0.34146   0.01839   0.27386   -0.410650           
         N         N         0.31405   0.97967   0.22970   -0.410889           
         N         N         0.34762   0.95344   0.23820   -0.411361           
         N         N         0.15956   0.51997   0.21746   -0.409215           
         N         N         0.18683   0.48036   0.25019   -0.410564           
         N         N         0.15398   0.45535   0.22176   -0.409799           
         N         N         0.65963   0.01935   0.21817   -0.412778           
         N         N         0.68729   0.98121   0.25577   -0.412889           
         N         N         0.65331   0.95527   0.25237   -0.407885           
         H         H         0.79759   0.22051   0.93129   0.355886  
         H         H         0.97426   0.54891   0.09490   0.357918  
         H         H         0.71251   0.69040   0.57169   0.370532  
         H         H         0.28701   0.74240   0.87572   0.327730  
         H         H         0.49133   0.07132   0.25594   0.367338  
         H         H         0.20988   0.18848   0.49954   0.371742  
         H         H         0.19813   0.26461   0.44971   0.363714  
         H         H         0.01212   0.57413   0.13785   0.359339  
         H         H         0.28289   0.68433   0.95093   0.350083  
         H         H         0.69790   0.76626   0.51098   0.350710  
         H         H         0.53049   0.05174   0.31836   0.358245  
         H         H         0.76597   0.18287   0.90783   0.339971  
         C         C         0.73157   0.14069   0.75483   0.068920  
         C         C         0.55959   0.01690   0.69198   0.050332  
         C         C         0.70643   0.81025   0.79041   0.015812  
         C         C         0.23070   0.64104   0.78695   0.085165  
         C         C         0.06004   0.50592   0.68663   0.051913  
         C         C         0.20911   0.30875   0.73547   0.051337  
         C         C         0.27093   0.14411   0.72716   0.071589  
         C         C         0.43990   0.01031   0.80561   0.062280  
         C         C         0.29105   0.81135   0.72753   0.043934  
         C         C         0.76850   0.64141   0.73308   0.082800  
         C         C         0.93986   0.51396   0.80998   0.060900  
         C         C         0.79140   0.30917   0.75228   0.082250  
         N         N         0.72365   0.17382   0.77162   -0.260607           
         N         N         0.54424   0.99150   0.73439   -0.266750           
         N         N         0.72753   0.80527   0.76825   -0.242788           
         N         N         0.22294   0.67430   0.80344   -0.255927           
         N         N         0.04306   0.48388   0.76558   -0.260876           
         N         N         0.23012   0.30403   0.71446   -0.255035           
         N         N         0.27734   0.17706   0.74583   -0.262757           
         N         N         0.45627   0.98539   0.73790   -0.261897           
         N         N         0.27007   0.80628   0.74906   -0.250839           
         N         N         0.77590   0.67444   0.72929   -0.257242           
         N         N         0.95496   0.48733   0.76795   -0.266373           
         N         N         0.77025   0.30407   0.77976   -0.255281           
         C         C         0.73692   0.20368   0.77818   0.102971  
         C         C         0.52269   0.99436   0.73409   0.109282  
         C         C         0.73774   0.77136   0.76129   0.088338  
         C         C         0.23649   0.70444   0.79661   0.117535  
         C         C         0.02172   0.48789   0.76108   0.108174  
         C         C         0.23980   0.27063   0.72123   0.101507  
         C         C         0.26441   0.20695   0.73730   0.119797  
         C         C         0.47753   0.99017   0.74310   0.117302  
         C         C         0.26030   0.77170   0.76621   0.080311  
         C         C         0.76241   0.70476   0.73683   0.122952  
         C         C         0.97645   0.49050   0.77000   0.114305  
         C         C         0.76100   0.26957   0.78205   0.109048  
         C         C         0.72594   0.23319   0.91096   -0.172103           
         C         C         0.50986   0.96181   0.77300   -0.144948           
         C         C         0.76179   0.76700   0.64271   -0.155178           
         C         C         0.22562   0.73573   0.91593   -0.156176           
         C         C         0.00862   0.45601   0.77889   -0.153496           
         C         C         0.26425   0.26739   0.62578   -0.144194           
         C         C         0.27627   0.23658   0.63229   -0.165337           
         C         C         0.48841   0.95930   0.77218   -0.156794           
         C         C         0.23707   0.76835   0.90129   -0.160849           
         C         C         0.77363   0.73460   0.62934   -0.161105           
         C         C         0.98712   0.45729   0.77826   -0.150797           
         C         C         0.73763   0.26506   0.91109   -0.148415           
         H         H         0.74836   0.13462   0.75474   0.073727  
         H         H         0.55720   0.04401   0.64993   0.078258  
         H         H         0.69493   0.78741   0.79628   0.055518  
         H         H         0.24757   0.63481   0.78433   0.079819  
         H         H         0.05947   0.52807   0.60019   0.065089  
         H         H         0.19726   0.28606   0.75201   0.066539  
         H         H         0.25609   0.13869   0.69568   0.079675  
         H         H         0.44136   0.03590   0.87885   0.074135  
         H         H         0.30238   0.78897   0.72969   0.062560  
         H         H         0.75204   0.63537   0.72745   0.082276  
         H         H         0.94239   0.54165   0.85677   0.076658  
         H         H         0.80318   0.28659   0.74233   0.074126  
         H         H         0.70798   0.23023   0.01216   0.130696  
         H         H         0.51797   0.93849   0.80242   0.122701  
         H         H         0.77053   0.78985   0.55942   0.126690  
         H         H         0.20765   0.73349   0.01895   0.130570  
         H         H         0.01628   0.43037   0.79096   0.125567  
         H         H         0.27325   0.29048   0.54605   0.123951  
         H         H         0.29506   0.23441   0.55708   0.126183  
         H         H         0.47914   0.93375   0.79710   0.127030  
         H         H         0.22851   0.79233   0.99324   0.131464  
         H         H         0.79201   0.73112   0.53523   0.127558  
         H         H         0.97738   0.43256   0.78648   0.123973  
         H         H         0.72903   0.28791   0.01224   0.130159  
         C         C         0.77228   0.23993   0.65052   0.114474  
         C         C         0.98906   0.52288   0.76039   0.105121  
         C         C         0.73852   0.70908   0.86081   0.119425  
         C         C         0.27131   0.74057   0.64575   0.063065  
         C         C         0.48987   0.02309   0.70612   0.078683  
         C         C         0.24011   0.21031   0.83940   0.070695  
         C         C         0.22785   0.24107   0.82879   0.123440  
         C         C         0.01125   0.52138   0.75389   0.089333  
         C         C         0.25972   0.70737   0.65994   0.119035  
         C         C         0.72649   0.74171   0.87065   0.086694  
         C         C         0.51220   0.02500   0.69604   0.123328  
         C         C         0.76022   0.20793   0.64655   0.050892  
         O         O         0.79472   0.24256   0.51590   -0.421953           
         O         O         0.97977   0.55692   0.75957   -0.426557           
         O         O         0.72695   0.68157   0.97561   -0.429386           
         O         O         0.29354   0.74079   0.49788   -0.466529           
         O         O         0.48158   0.05544   0.66888   -0.471659           
         O         O         0.22647   0.18396   0.95886   -0.465168           
         O         O         0.20414   0.24257   0.93480   -0.427525           
         O         O         0.02113   0.55544   0.74909   -0.465167           
         O         O         0.27085   0.67839   0.53346   -0.425176           
         O         O         0.70335   0.74276   0.00204   -0.458068           
         O         O         0.52382   0.05742   0.64224   -0.433018           
         O         O         0.77246   0.18172   0.49870   -0.466122           
         C         C         0.78808   0.37673   0.72862   -0.106604           
         C         C         0.91267   0.47369   0.73817   -0.110382           
         C         C         0.80269   0.61450   0.76039   -0.113415           
         C         C         0.28883   0.87873   0.69593   -0.102538           
         C         C         0.41327   0.97216   0.71817   -0.106621           
         C         C         0.30349   0.11588   0.77219   -0.109880           
         C         C         0.21316   0.37649   0.74304   -0.103843           
         C         C         0.08741   0.46975   0.76543   -0.108813           
         C         C         0.19634   0.61401   0.75783   -0.109351           
         C         C         0.70965   0.87834   0.79951   -0.103650           
         C         C         0.58712   0.97533   0.74297   -0.112376           
         C         C         0.69772   0.11304   0.72177   -0.107128           
         C         C         0.79668   0.41166   0.72571   -0.099091           
         C         C         0.89147   0.46854   0.73413   -0.095714           
         C         C         0.81532   0.58422   0.76599   -0.095406           
         C         C         0.29761   0.91340   0.69636   -0.097425           
         C         C         0.39205   0.96777   0.71371   -0.092229           
         C         C         0.31568   0.08501   0.77693   -0.096158           
         C         C         0.20453   0.41145   0.74829   -0.098756           
         C         C         0.10877   0.46610   0.76805   -0.091326           
         C         C         0.18391   0.58359   0.74645   -0.095836           
         C         C         0.70132   0.91283   0.79163   -0.097942           
         C         C         0.60830   0.96903   0.74530   -0.093507           
         C         C         0.68504   0.08253   0.71760   -0.098957           
         H         H         0.77184   0.37220   0.71903   0.115148  
         H         H         0.92578   0.45180   0.69240   0.112976  
         H         H         0.80818   0.64221   0.77467   0.114409  
         H         H         0.27271   0.87470   0.68369   0.116997  
         H         H         0.42657   0.95053   0.66438   0.117119  
         H         H         0.30887   0.14328   0.79376   0.116218  
         H         H         0.22975   0.37204   0.74612   0.113581  
         H         H         0.07467   0.44831   0.81192   0.117547  
         H         H         0.19058   0.64155   0.74961   0.115051  
         H         H         0.72588   0.87471   0.80999   0.115504  
         H         H         0.57424   0.95413   0.77556   0.113536  
         H         H         0.69224   0.14032   0.70679   0.116206  
         H         H         0.78738   0.43544   0.71355   0.112864  
         H         H         0.88729   0.44242   0.68516   0.113367  
         H         H         0.83099   0.58736   0.78582   0.110406  
         H         H         0.28864   0.93759   0.68424   0.113713  
         H         H         0.38794   0.94244   0.65733   0.113551  
         H         H         0.33104   0.08725   0.80187   0.110859  
         H         H         0.21415   0.43554   0.75539   0.112624  
         H         H         0.11358   0.44145   0.81481   0.111679  
         H         H         0.16807   0.58651   0.72944   0.112197  
         H         H         0.71085   0.93721   0.79573   0.112561  
         H         H         0.61266   0.94267   0.78038   0.112947  
         H         H         0.66930   0.08500   0.69874   0.112410  
         C         C         0.77470   0.57428   0.72239   -0.126870           
         C         C         0.82166   0.35148   0.75147   -0.130361           
         C         C         0.90114   0.53658   0.85823   -0.136600           
         C         C         0.27614   0.07698   0.71546   -0.125490           
         C         C         0.32181   0.85244   0.72466   -0.129235           
         C         C         0.40123   0.03381   0.86035   -0.127314           
         C         C         0.22493   0.57419   0.78316   -0.129090           
         C         C         0.17865   0.35069   0.73559   -0.141187           
         C         C         0.09804   0.52985   0.64099   -0.129788           
         C         C         0.72582   0.07386   0.75862   -0.127145           
         C         C         0.67590   0.85127   0.78459   -0.142718           
         C         C         0.59811   0.03753   0.65621   -0.137841           
         C         C         0.78740   0.54387   0.72717   -0.103918           
         C         C         0.83017   0.38652   0.75063   -0.097122           
         C         C         0.88001   0.53165   0.85119   -0.101674           
         C         C         0.28830   0.04599   0.72110   -0.102607           
         C         C         0.33058   0.88720   0.72579   -0.096143           
         C         C         0.38020   0.02983   0.85074   -0.101288           
         C         C         0.21243   0.54370   0.77287   -0.101396           
         C         C         0.17009   0.38576   0.73845   -0.092362           
         C         C         0.11904   0.52691   0.65183   -0.100736           
         C         C         0.71298   0.04328   0.75627   -0.101221           
         C         C         0.66759   0.88588   0.77520   -0.091711           
         C         C         0.61923   0.03142   0.66101   -0.102293           
         H         H         0.75902   0.57059   0.70265   0.107790  
         H         H         0.83118   0.32794   0.76355   0.107156  
         H         H         0.90489   0.56278   0.91023   0.106960  
         H         H         0.26095   0.07416   0.68818   0.107562  
         H         H         0.33096   0.82862   0.73882   0.105535  
         H         H         0.40477   0.05908   0.92170   0.106879  
         H         H         0.24080   0.57081   0.79977   0.106977  
         H         H         0.16861   0.32689   0.73098   0.100620  
         H         H         0.09401   0.55405   0.58542   0.105914  
         H         H         0.74159   0.07086   0.77709   0.106116  
         H         H         0.66601   0.82717   0.78184   0.098293  
         H         H         0.59417   0.06395   0.61823   0.107204  
         H         H         0.78190   0.51618   0.71299   0.114240  
         H         H         0.84627   0.39108   0.76230   0.111593  
         H         H         0.86708   0.55374   0.89494   0.115688  
         H         H         0.28287   0.01861   0.70010   0.113713  
         H         H         0.34653   0.89133   0.74023   0.112592  
         H         H         0.36709   0.05172   0.90126   0.114460  
         H         H         0.21824   0.51620   0.78075   0.113017  
         H         H         0.15359   0.39011   0.73369   0.113226  
         H         H         0.13153   0.54871   0.60867   0.114856  
         H         H         0.71842   0.01604   0.77194   0.114369  
         H         H         0.65144   0.88941   0.76354   0.113123  
         H         H         0.63197   0.05279   0.62922   0.111750  
         C         C         0.82112   0.51635   0.75852   0.370005  
         C         C         0.82625   0.45435   0.74580   0.378410  
         C         C         0.85284   0.49228   0.77623   0.369148  
         C         C         0.32152   0.01712   0.75370   0.372228  
         C         C         0.32685   0.95509   0.72796   0.373616  
         C         C         0.35328   0.99207   0.76589   0.370885  
         C         C         0.17872   0.51561   0.73971   0.375533  
         C         C         0.17427   0.45365   0.74240   0.371860  
         C         C         0.14704   0.49073   0.72253   0.372266  
         C         C         0.67860   0.01519   0.73411   0.372972  
         C         C         0.67243   0.95383   0.75732   0.371171  
         C         C         0.64653   0.99120   0.71944   0.371452  
         C         C         0.78212   0.61000   0.73924   0.058321  
         C         C         0.80037   0.34612   0.74338   0.061980  
         C         C         0.91784   0.50781   0.80113   0.064463  
         C         C         0.28361   0.11222   0.74027   0.055620  
         C         C         0.30066   0.84782   0.71341   0.059792  
         C         C         0.41804   0.00520   0.79339   0.057358  
         C         C         0.21709   0.60973   0.77587   0.057160  
         C         C         0.20034   0.34553   0.73633   0.063567  
         C         C         0.08188   0.50160   0.69960   0.063724  
         C         C         0.71827   0.10908   0.74302   0.055286  
         C         C         0.69723   0.84686   0.79302   0.064950  
         C         C         0.58164   0.00973   0.69811   0.065885  
         C         C         0.80781   0.54849   0.74983   0.006261  
         C         C         0.81772   0.41705   0.73856   0.002623  
         C         C         0.87494   0.49755   0.78889   0.005476  
         C         C         0.30826   0.04973   0.75083   0.005839  
         C         C         0.31840   0.91807   0.71382   0.008097  
         C         C         0.37540   0.99664   0.77843   0.008032  
         C         C         0.19183   0.54802   0.75345   0.004188  
         C         C         0.18295   0.41654   0.74518   0.003578  
         C         C         0.12470   0.49479   0.71349   0.006587  
         C         C         0.69243   0.04734   0.73623   0.006869  
         C         C         0.68034   0.91709   0.77680   0.005513  
         C         C         0.62456   0.99712   0.70633   0.001498  
         N         N         0.84051   0.52250   0.78112   -0.411851           
         N         N         0.81312   0.48283   0.74241   -0.411386           
         N         N         0.84651   0.45767   0.75783   -0.409122           
         N         N         0.34090   0.02258   0.77735   -0.409860           
         N         N         0.31364   0.98392   0.73037   -0.408702           
         N         N         0.34708   0.95773   0.74071   -0.407602           
         N         N         0.15899   0.52119   0.72203   -0.412565           
         N         N         0.18724   0.48238   0.74774   -0.414455           
         N         N         0.15388   0.45652   0.73324   -0.407946           
         N         N         0.65919   0.02105   0.71297   -0.412076           
         N         N         0.68605   0.98214   0.75562   -0.412074           
         N         N         0.65242   0.95696   0.74111   -0.409236           
         H         H         0.79761   0.22005   0.43431   0.354842  
         H         H         0.99196   0.57438   0.74529   0.368443  
         H         H         0.71248   0.69249   0.07274   0.369792  
         H         H         0.29706   0.76612   0.46398   0.359114  
         H         H         0.47399   0.04950   0.58722   0.358492  
         H         H         0.23267   0.17961   0.04967   0.356321  
         H         H         0.20083   0.22075   0.00889   0.359581  
         H         H         0.03177   0.55395   0.80729   0.360717  
         H         H         0.28445   0.68845   0.43223   0.367171  
         H         H         0.69772   0.76811   0.01967   0.352954  
         H         H         0.51231   0.07434   0.63654   0.363006  
         H         H         0.76658   0.18403   0.40360   0.336657 

