
##########################################################################
#               Crystallographic Information Format file
#               Produced by PyCifRW module
#
#  This is a CIF file.  CIF has been adopted by the International
#  Union of Crystallography as the standard for data archiving and
#  transmission.
#
#  For information on this file format, follow the CIF links at
#  http://www.iucr.org
##########################################################################

data_image0

_cell_length_a                          25.5587
_cell_length_b                          25.7147
_cell_length_c                          8.06489
_cell_angle_alpha                       116.694
_cell_angle_beta                        64.7065
_cell_angle_gamma                       120.073
_symmetry_space_group_name_H-M          'P 1'
_space_group_name_Hall                  'P 1'
loop_
  _atom_site_type_symbol
  _atom_site_label
  _atom_site_fract_x
  _atom_site_fract_y
  _atom_site_fract_z
  _atom_site_charge
         C         C         0.01659   0.54256   0.23990   0.073751  
         N         N         0.97930   0.48723   0.25978   -0.291182           
         C         C         0.45403   0.47619   0.26077   0.072303  
         N         N         0.51240   0.49676   0.25345   -0.288905           
         C         C         0.52155   0.98440   0.26992   0.072092  
         N         N         0.50662   0.01491   0.21647   -0.296948           
         H         H         0.00255   0.57180   0.21513   0.064359  
         H         H         0.42044   0.42827   0.26576   0.060251  
         H         H         0.56225   0.00581   0.32666   0.068924  
         C         C         0.12161   0.62915   0.22605   -0.130902           
         C         C         0.18411   0.65407   0.22547   -0.102623           
         C         C         0.88261   0.39949   0.27604   -0.148314           
         C         C         0.81988   0.36744   0.27567   -0.094798           
         C         C         0.36618   0.49241   0.26094   -0.136702           
         C         C         0.34197   0.53023   0.26110   -0.095289           
         C         C         0.60119   0.49052   0.25903   -0.147378           
         C         C         0.63274   0.45897   0.25519   -0.088492           
         C         C         0.50487   0.88330   0.28538   -0.126092           
         C         C         0.46899   0.82019   0.27555   -0.099168           
         C         C         0.51237   0.10781   0.20527   -0.155124           
         C         C         0.54160   0.17092   0.21344   -0.092575           
         H         H         0.10370   0.65560   0.20526   0.105295  
         H         H         0.21539   0.70043   0.20785   0.113908  
         H         H         0.90677   0.37955   0.29884   0.117528  
         H         H         0.79340   0.32096   0.29589   0.113029  
         H         H         0.33624   0.44401   0.26242   0.103001  
         H         H         0.29361   0.51235   0.25984   0.113622  
         H         H         0.62425   0.53992   0.26585   0.117370  
         H         H         0.68120   0.48298   0.26254   0.112420  
         H         H         0.55007   0.90630   0.31705   0.104863  
         H         H         0.48574   0.79290   0.29706   0.113493  
         H         H         0.46592   0.07901   0.18146   0.122021  
         H         H         0.51906   0.19331   0.19425   0.113241  
         C         C         0.42354   0.88925   0.22329   -0.106594           
         C         C         0.38682   0.82701   0.21991   -0.101911           
         C         C         0.60346   0.11362   0.24945   -0.178594           
         C         C         0.63275   0.17675   0.25644   -0.089938           
         C         C         0.10550   0.53382   0.26565   -0.109830           
         C         C         0.16786   0.55816   0.26269   -0.095078           
         C         C         0.88608   0.48798   0.22959   -0.173742           
         C         C         0.82326   0.45628   0.23089   -0.088491           
         C         C         0.46722   0.57946   0.26395   -0.096076           
         C         C         0.44292   0.61724   0.26544   -0.093548           
         C         C         0.50812   0.39464   0.23477   -0.173540           
         C         C         0.53950   0.36291   0.23102   -0.086744           
         H         H         0.40756   0.91641   0.19813   0.113745  
         H         H         0.34053   0.80419   0.19593   0.111937  
         H         H         0.62789   0.09216   0.26501   0.112714  
         H         H         0.67968   0.20468   0.27687   0.111078  
         H         H         0.07377   0.48760   0.28422   0.114380  
         H         H         0.18705   0.53187   0.27902   0.110614  
         H         H         0.91113   0.53394   0.20608   0.112954  
         H         H         0.79912   0.47667   0.20955   0.108398  
         H         H         0.51553   0.59731   0.26653   0.114243  
         H         H         0.47166   0.66594   0.26811   0.112194  
         H         H         0.46030   0.36869   0.22162   0.105681  
         H         H         0.51707   0.31291   0.21760   0.110722  
         C         C         0.36896   0.72619   0.24757   0.374987  
         C         C         0.27393   0.64478   0.24657   0.370270  
         C         C         0.35474   0.63291   0.25913   0.370600  
         C         C         0.48286   0.91855   0.25896   0.062808  
         C         C         0.08132   0.56878   0.24609   0.052790  
         C         C         0.42913   0.51637   0.26160   0.069040  
         C         C         0.40910   0.79170   0.24573   0.004022  
         C         C         0.20806   0.61876   0.24334   0.008102  
         C         C         0.38009   0.59302   0.26252   0.002942  
         N         N         0.39371   0.69252   0.25772   -0.406972           
         N         N         0.30955   0.70432   0.24008   -0.413476           
         N         N         0.29428   0.60729   0.25655   -0.408580           
         C         C         0.63469   0.27288   0.24439   0.372978  
         C         C         0.72307   0.36220   0.25176   0.373685  
         C         C         0.63480   0.36116   0.24180   0.372843  
         C         C         0.54208   0.07822   0.22561   0.203612  
         C         C         0.91691   0.46019   0.25346   0.207281  
         C         C         0.53832   0.45944   0.24995   0.214589  
         C         C         0.60218   0.20632   0.24019   -0.004079           
         C         C         0.78929   0.39569   0.25439   -0.003300           
         C         C         0.60198   0.39474   0.24287   -0.001842           
         N         N         0.60275   0.30017   0.23717   -0.414436           
         N         N         0.69461   0.30196   0.25451   -0.414291           
         N         N         0.69529   0.39373   0.24556   -0.410649           
         C         C         0.02223   0.54939   0.72956   0.071141  
         N         N         0.98306   0.49591   0.76085   -0.290982           
         C         C         0.44967   0.46657   0.74333   0.074877  
         N         N         0.50536   0.48897   0.76192   -0.287546           
         C         C         0.53243   0.98387   0.76767   0.072225  
         N         N         0.51547   0.01507   0.72423   -0.300589           
         H         H         0.01044   0.57739   0.69063   0.067824  
         H         H         0.41867   0.41629   0.71844   0.060190  
         H         H         0.57581   0.00419   0.80967   0.071595  
         C         C         0.12840   0.63517   0.72018   -0.130704           
         C         C         0.19039   0.65875   0.72309   -0.100768           
         C         C         0.88840   0.40639   0.76736   -0.148674           
         C         C         0.82578   0.37302   0.76635   -0.095681           
         C         C         0.36315   0.48578   0.74476   -0.139930           
         C         C         0.34042   0.52573   0.75075   -0.100067           
         C         C         0.59600   0.48441   0.75919   -0.143801           
         C         C         0.62938   0.45431   0.75342   -0.087245           
         C         C         0.51488   0.88028   0.77422   -0.128138           
         C         C         0.47737   0.81742   0.76528   -0.100974           
         C         C         0.52038   0.10667   0.70603   -0.153172           
         C         C         0.54865   0.16958   0.71326   -0.092624           
         H         H         0.11232   0.66264   0.69652   0.105020  
         H         H         0.22316   0.70473   0.70451   0.113336  
         H         H         0.91365   0.38649   0.78513   0.120064  
         H         H         0.80078   0.32592   0.78130   0.112877  
         H         H         0.33324   0.43640   0.73415   0.102912  
         H         H         0.29283   0.50867   0.74414   0.114206  
         H         H         0.61757   0.53384   0.76670   0.117580  
         H         H         0.67807   0.47965   0.75862   0.112534  
         H         H         0.56165   0.90068   0.79368   0.104905  
         H         H         0.49387   0.78825   0.77816   0.114906  
         H         H         0.47420   0.07726   0.68102   0.120641  
         H         H         0.52528   0.19111   0.69338   0.113974  
         C         C         0.43157   0.89171   0.74202   -0.105384           
         C         C         0.39395   0.82946   0.73629   -0.097597           
         C         C         0.61175   0.11490   0.75370   -0.174373           
         C         C         0.64033   0.17776   0.75951   -0.090416           
         C         C         0.10858   0.53947   0.76635   -0.110433           
         C         C         0.17033   0.56269   0.76799   -0.096045           
         C         C         0.88787   0.49531   0.73608   -0.169190           
         C         C         0.82512   0.46195   0.73548   -0.088716           
         C         C         0.46369   0.57249   0.76785   -0.096693           
         C         C         0.44101   0.61185   0.77130   -0.096090           
         C         C         0.50339   0.38763   0.74488   -0.176836           
         C         C         0.53680   0.35739   0.73919   -0.084802           
         H         H         0.41519   0.92142   0.73088   0.115281  
         H         H         0.34664   0.80905   0.72205   0.111250  
         H         H         0.63651   0.09460   0.77273   0.107887  
         H         H         0.68719   0.20633   0.78046   0.112685  
         H         H         0.07583   0.49353   0.78512   0.114311  
         H         H         0.18751   0.53589   0.79004   0.111513  
         H         H         0.91163   0.54253   0.72191   0.109527  
         H         H         0.80011   0.48254   0.71947   0.110308  
         H         H         0.51138   0.58930   0.77481   0.114135  
         H         H         0.47009   0.66105   0.78083   0.112614  
         H         H         0.45446   0.36111   0.74203   0.107829  
         H         H         0.51475   0.30783   0.73181   0.110613  
         C         C         0.37440   0.72566   0.74711   0.379374  
         C         C         0.27772   0.64673   0.74888   0.372404  
         C         C         0.35646   0.63117   0.75911   0.370069  
         C         C         0.49280   0.91834   0.76199   0.063052  
         C         C         0.08653   0.57513   0.74113   0.053732  
         C         C         0.42511   0.50848   0.75264   0.066827  
         C         C         0.41617   0.79117   0.74696   0.002470  
         C         C         0.21221   0.62259   0.74563   0.004737  
         C         C         0.37925   0.58914   0.76182   0.011397  
         N         N         0.39747   0.69007   0.75486   -0.410210           
         N         N         0.31516   0.70597   0.74169   -0.415678           
         N         N         0.29612   0.60777   0.75905   -0.407814           
         C         C         0.63990   0.27292   0.74447   0.376180  
         C         C         0.72660   0.36464   0.74869   0.375450  
         C         C         0.63563   0.35906   0.74215   0.372328  
         C         C         0.55061   0.07817   0.72922   0.201883  
         C         C         0.92086   0.46794   0.75142   0.207144  
         C         C         0.53264   0.45209   0.75441   0.214303  
         C         C         0.60909   0.20630   0.74117   -0.003590           
         C         C         0.79305   0.40032   0.75121   -0.002712           
         C         C         0.60016   0.39026   0.74385   -0.003342           
         N         N         0.60550   0.29824   0.74019   -0.413702           
         N         N         0.70029   0.30428   0.75067   -0.419105           
         N         N         0.69637   0.39395   0.74355   -0.410966 

