
##########################################################################
#               Crystallographic Information Format file
#               Produced by PyCifRW module
#
#  This is a CIF file.  CIF has been adopted by the International
#  Union of Crystallography as the standard for data archiving and
#  transmission.
#
#  For information on this file format, follow the CIF links at
#  http://www.iucr.org
##########################################################################

data_image0

_cell_length_a                          17.5509
_cell_length_b                          17.5208
_cell_length_c                          13.8566
_cell_angle_alpha                       84.8979
_cell_angle_beta                        90.9167
_cell_angle_gamma                       119.897
_symmetry_space_group_name_H-M          'P 1'
_space_group_name_Hall                  'P 1'
loop_
  _atom_site_type_symbol
  _atom_site_label
  _atom_site_fract_x
  _atom_site_fract_y
  _atom_site_fract_z
  _atom_site_charge
         N         N         0.63336   0.17804   0.14312   -0.584989           
         H         H         0.69169   0.18684   0.11774   0.296917  
         N         N         0.82436   0.48256   0.14386   -0.591356           
         H         H         0.81703   0.53703   0.14061   0.290198  
         N         N         0.52921   0.36693   0.16929   -0.568674           
         H         H         0.47833   0.30898   0.14998   0.299839  
         N         N         0.35240   0.82617   0.15181   -0.606872           
         H         H         0.29086   0.81813   0.14472   0.294142  
         N         N         0.17316   0.54871   0.16152   -0.590640           
         H         H         0.17983   0.49785   0.14073   0.296091  
         N         N         0.45720   0.64721   0.13686   -0.608047           
         H         H         0.50485   0.70997   0.11368   0.297775  
         N         N         0.36801   0.82527   0.35291   -0.589186           
         H         H         0.30967   0.81742   0.37688   0.299280  
         N         N         0.17477   0.52449   0.36429   -0.599865           
         H         H         0.18599   0.47281   0.37806   0.295809  
         N         N         0.46559   0.62943   0.33848   -0.582815           
         H         H         0.51598   0.68738   0.35839   0.297504  
         N         N         0.65229   0.17486   0.34420   -0.603786           
         H         H         0.71372   0.18248   0.35016   0.290282  
         N         N         0.82254   0.44760   0.34518   -0.590752           
         H         H         0.81178   0.49393   0.37191   0.293576  
         N         N         0.53216   0.34500   0.36532   -0.618391           
         H         H         0.56309   0.33379   0.42356   0.303438  
         C         C         0.56078   0.09214   0.13283   0.254501  
         C         C         0.91470   0.50515   0.13333   0.223835  
         C         C         0.51771   0.44095   0.14658   0.270107  
         C         C         0.42039   0.91714   0.13465   0.225808  
         C         C         0.08815   0.53739   0.14477   0.256677  
         C         C         0.48172   0.58109   0.12714   0.218463  
         C         C         0.44132   0.91056   0.36341   0.255434  
         C         C         0.08355   0.49929   0.37465   0.223522  
         C         C         0.47756   0.55560   0.35926   0.271706  
         C         C         0.58340   0.08436   0.36136   0.224024  
         C         C         0.90807   0.46109   0.36263   0.265797  
         C         C         0.51241   0.41461   0.37596   0.213303  
         C         C         0.57381   0.02553   0.10073   -0.191711           
         C         C         0.98264   0.58694   0.15720   -0.184771           
         C         C         0.43717   0.42813   0.11103   -0.195726           
         C         C         0.40584   0.98509   0.15742   -0.179036           
         C         C         0.02139   0.45864   0.11166   -0.188372           
         C         C         0.56506   0.59570   0.15301   -0.173490           
         C         C         0.42950   0.97803   0.39513   -0.189254           
         C         C         0.01757   0.41684   0.34967   -0.181667           
         C         C         0.55691   0.56696   0.39734   -0.198755           
         C         C         0.59660   0.01567   0.33835   -0.178661           
         C         C         0.97275   0.54019   0.39727   -0.188337           
         C         C         0.42985   0.40106   0.34902   -0.156030           
         C         C         0.50420   0.93895   0.10091   -0.145890           
         C         C         0.06903   0.60388   0.16157   -0.180433           
         C         C         0.41944   0.49759   0.10097   -0.142755           
         C         C         0.47472   0.07201   0.15530   -0.177522           
         C         C         0.93550   0.44265   0.10539   -0.145811           
         C         C         0.58395   0.52711   0.16130   -0.176314           
         C         C         0.49996   0.06409   0.39470   -0.143524           
         C         C         0.93026   0.39695   0.34495   -0.177567           
         C         C         0.57445   0.49735   0.40485   -0.156053           
         C         C         0.52687   0.92917   0.34099   -0.181977           
         C         C         0.05966   0.55919   0.40366   -0.146772           
         C         C         0.41187   0.47023   0.34114   -0.185276           
         H         H         0.63944   0.04107   0.07796   0.110001  
         H         H         0.96700   0.63614   0.17818   0.103496  
         H         H         0.38649   0.36210   0.09589   0.107049  
         H         H         0.34044   0.96903   0.18204   0.104398  
         H         H         0.03648   0.40834   0.09346   0.109881  
         H         H         0.61411   0.66087   0.17232   0.103464  
         H         H         0.36419   0.96377   0.41757   0.110705  
         H         H         0.03578   0.36968   0.32813   0.104051  
         H         H         0.60678   0.63177   0.41680   0.104392  
         H         H         0.66137   0.03089   0.31256   0.103126  
         H         H         0.95488   0.58834   0.41608   0.105294  
         H         H         0.38067   0.33580   0.33017   0.109053  
         H         H         0.51460   0.88694   0.07833   0.120098  
         H         H         0.12082   0.66564   0.18529   0.120970  
         H         H         0.35572   0.48671   0.07730   0.122789  
         H         H         0.46380   0.12360   0.17807   0.128391  
         H         H         0.88315   0.38029   0.08346   0.124499  
         H         H         0.64735   0.53805   0.18600   0.122898  
         H         H         0.49024   0.11700   0.41563   0.126061  
         H         H         0.88015   0.33470   0.32035   0.121548  
         H         H         0.63795   0.50796   0.42910   0.115844  
         H         H         0.53649   0.87669   0.31849   0.123738  
         H         H         0.10999   0.62182   0.42731   0.122768  
         H         H         0.34899   0.46027   0.31586   0.122094  
         P         P         0.35159   0.76578   0.25566   1.259209  
         P         P         0.23307   0.58666   0.26254   1.262671  
         P         P         0.41164   0.64761   0.24384   1.266686  
         N         N         0.43175   0.74694   0.24831   -0.911665           
         N         N         0.25274   0.68568   0.27028   -0.910219           
         N         N         0.31213   0.56723   0.25202   -0.912510           
         P         P         0.65058   0.23572   0.24217   1.253010  
         P         P         0.76487   0.41388   0.24221   1.257920  
         P         P         0.58426   0.34873   0.26137   1.271827  
         N         N         0.56921   0.25162   0.25431   -0.901897           
         N         N         0.74866   0.31729   0.22666   -0.906038           
         N         N         0.68401   0.43007   0.25593   -0.933425           
         N         N         0.64188   0.17463   0.66102   -0.570480           
         H         H         0.70181   0.18700   0.63692   0.304545  
         N         N         0.82525   0.47118   0.63742   -0.597130           
         H         H         0.82031   0.52677   0.62342   0.288089  
         N         N         0.53093   0.36646   0.65864   -0.581607           
         H         H         0.47965   0.30678   0.64388   0.298789  
         N         N         0.36020   0.82890   0.63573   -0.617339           
         H         H         0.35607   0.79494   0.57752   0.298949  
         N         N         0.16802   0.52607   0.67763   -0.570894           
         H         H         0.17607   0.47433   0.66402   0.301260  
         N         N         0.45072   0.64138   0.63738   -0.609751           
         H         H         0.49823   0.70375   0.61244   0.289837  
         N         N         0.36023   0.82637   0.83202   -0.571641           
         H         H         0.30008   0.81605   0.85236   0.300289  
         N         N         0.17634   0.53503   0.87287   -0.616536           
         H         H         0.21313   0.57029   0.92791   0.300193  
         N         N         0.47472   0.63514   0.83792   -0.575129           
         H         H         0.52828   0.69469   0.84842   0.296670  
         N         N         0.64336   0.17099   0.85756   -0.619689           
         H         H         0.64634   0.20492   0.91541   0.298268  
         N         N         0.82563   0.46183   0.84009   -0.589734           
         H         H         0.81219   0.50760   0.86307   0.298315  
         N         N         0.54339   0.35276   0.86117   -0.603987           
         H         H         0.49227   0.29066   0.88034   0.290519  
         C         C         0.56996   0.09244   0.63982   0.269342  
         C         C         0.91485   0.49023   0.63036   0.216951  
         C         C         0.51420   0.43765   0.64063   0.264197  
         C         C         0.43092   0.91938   0.62522   0.215534  
         C         C         0.08610   0.51792   0.65123   0.269606  
         C         C         0.47495   0.57535   0.62646   0.222108  
         C         C         0.43238   0.90825   0.85344   0.271201  
         C         C         0.08609   0.51448   0.87951   0.216715  
         C         C         0.48819   0.56216   0.85894   0.266693  
         C         C         0.57218   0.08074   0.86789   0.213811  
         C         C         0.91090   0.47630   0.86114   0.267802  
         C         C         0.52221   0.42079   0.87336   0.220144  
         C         C         0.58483   0.03009   0.59933   -0.193722           
         C         C         0.98383   0.57228   0.65212   -0.175184           
         C         C         0.43065   0.42200   0.61298   -0.196269           
         C         C         0.41489   0.98443   0.65451   -0.153373           
         C         C         0.01912   0.43892   0.61859   -0.196927           
         C         C         0.56042   0.59236   0.64449   -0.174353           
         C         C         0.41789   0.97124   0.89299   -0.195756           
         C         C         0.02044   0.43119   0.85671   -0.157324           
         C         C         0.57138   0.57551   0.88505   -0.200920           
         C         C         0.58777   0.01533   0.83874   -0.154144           
         C         C         0.97502   0.55677   0.89387   -0.194631           
         C         C         0.43710   0.40603   0.85801   -0.176055           
         C         C         0.51607   0.94403   0.59316   -0.160821           
         C         C         0.06911   0.58715   0.66079   -0.178249           
         C         C         0.41130   0.49038   0.60564   -0.143755           
         C         C         0.48322   0.07031   0.66168   -0.185932           
         C         C         0.93415   0.42525   0.60799   -0.146696           
         C         C         0.58074   0.52491   0.65002   -0.175420           
         C         C         0.48714   0.05698   0.89939   -0.160323           
         C         C         0.93353   0.41156   0.84803   -0.179758           
         C         C         0.58812   0.50530   0.89273   -0.148491           
         C         C         0.51907   0.92948   0.83240   -0.189398           
         C         C         0.06188   0.57596   0.90224   -0.160032           
         C         C         0.41940   0.47530   0.85251   -0.172832           
         H         H         0.65136   0.04783   0.57746   0.106915  
         H         H         0.96958   0.62366   0.66828   0.103478  
         H         H         0.37973   0.35521   0.60073   0.108544  
         H         H         0.34815   0.96575   0.67629   0.109746  
         H         H         0.03282   0.38658   0.60510   0.107492  
         H         H         0.61064   0.65874   0.65905   0.101811  
         H         H         0.35136   0.95450   0.91366   0.107057  
         H         H         0.03921   0.38280   0.84188   0.109927  
         H         H         0.62436   0.64208   0.89465   0.105124  
         H         H         0.65439   0.03370   0.81667   0.110436  
         H         H         0.95738   0.60613   0.90823   0.106260  
         H         H         0.38491   0.33986   0.84552   0.103689  
         H         H         0.52883   0.89486   0.56646   0.113243  
         H         H         0.12168   0.64957   0.68229   0.131437  
         H         H         0.34577   0.47790   0.58780   0.120290  
         H         H         0.47100   0.11906   0.69012   0.125036  
         H         H         0.88147   0.36300   0.58624   0.120358  
         H         H         0.64641   0.53783   0.66751   0.122532  
         H         H         0.47497   0.10673   0.92564   0.114001  
         H         H         0.88353   0.34800   0.82619   0.128223  
         H         H         0.65351   0.51614   0.90831   0.119525  
         H         H         0.53080   0.87989   0.80527   0.128321  
         H         H         0.11195   0.64015   0.92278   0.112504  
         H         H         0.35392   0.46408   0.83718   0.129735  
         P         P         0.35215   0.76581   0.74003   1.268964  
         P         P         0.23388   0.58296   0.76610   1.267671  
         P         P         0.41286   0.64648   0.74776   1.251707  
         N         N         0.43259   0.74601   0.74596   -0.932296           
         N         N         0.25450   0.68361   0.74799   -0.925149           
         N         N         0.31483   0.56529   0.76746   -0.899394           
         P         P         0.65091   0.23450   0.75373   1.272465  
         P         P         0.76630   0.41586   0.74182   1.255615  
         P         P         0.58803   0.35259   0.75297   1.254876  
         N         N         0.57033   0.25421   0.75049   -0.934160           
         N         N         0.74852   0.31680   0.74576   -0.901014           
         N         N         0.68635   0.43516   0.74311   -0.909642 

