
##########################################################################
#               Crystallographic Information Format file
#               Produced by PyCifRW module
#
#  This is a CIF file.  CIF has been adopted by the International
#  Union of Crystallography as the standard for data archiving and
#  transmission.
#
#  For information on this file format, follow the CIF links at
#  http://www.iucr.org
##########################################################################

data_image0

_cell_length_a                          22.6628
_cell_length_b                          22.648
_cell_length_c                          8.00192
_cell_angle_alpha                       96.9706
_cell_angle_beta                        116.45
_cell_angle_gamma                       120.038
_symmetry_space_group_name_H-M          'P 1'
_space_group_name_Hall                  'P 1'
loop_
  _atom_site_type_symbol
  _atom_site_label
  _atom_site_fract_x
  _atom_site_fract_y
  _atom_site_fract_z
  _atom_site_charge
         C         C         0.74309   0.38520   0.25073   0.055199  
         C         C         0.62389   0.35719   0.25040   0.049216  
         C         C         0.65004   0.26485   0.24322   0.063974  
         C         C         0.26898   0.62041   0.24976   0.058743  
         C         C         0.38859   0.64760   0.25486   0.050211  
         C         C         0.36352   0.74066   0.25892   0.059809  
         C         C         0.69483   0.40631   0.25367   -0.126470           
         C         C         0.60212   0.28687   0.24518   -0.115711           
         C         C         0.72012   0.31402   0.24578   -0.112519           
         C         C         0.31665   0.59844   0.24825   -0.141886           
         C         C         0.41180   0.71839   0.26037   -0.123256           
         C         C         0.29281   0.69178   0.25460   -0.105261           
         C         C         0.81515   0.43662   0.25128   0.087563  
         C         C         0.57477   0.37946   0.25919   0.086080  
         C         C         0.62789   0.19214   0.24040   0.091899  
         C         C         0.19640   0.56996   0.24830   0.070997  
         C         C         0.43754   0.62471   0.24938   0.088685  
         C         C         0.38496   0.81284   0.25928   0.092329  
         N         N         0.86131   0.41813   0.25203   -0.265071           
         N         N         0.59057   0.44179   0.24722   -0.247797           
         N         N         0.56739   0.14962   0.25710   -0.259506           
         N         N         0.15302   0.59094   0.25471   -0.259759           
         N         N         0.41992   0.56144   0.25827   -0.251896           
         N         N         0.44572   0.85563   0.24354   -0.259381           
         C         C         0.92994   0.46266   0.25159   0.100267  
         C         C         0.54695   0.46665   0.25104   0.101317  
         C         C         0.54214   0.08014   0.25433   0.089753  
         C         C         0.08446   0.54711   0.25585   0.081977  
         C         C         0.46349   0.53646   0.25523   0.099912  
         C         C         0.47031   0.92471   0.24448   0.089284  
         C         C         0.96676   0.42977   0.22506   0.102336  
         C         C         0.58115   0.54237   0.27456   0.087480  
         C         C         0.46722   0.03488   0.24293   0.090074  
         C         C         0.04779   0.58022   0.28301   0.104393  
         C         C         0.42935   0.46065   0.23202   0.088942  
         C         C         0.54498   0.96978   0.25428   0.085602  
         C         C         0.04195   0.47049   0.22858   0.088638  
         C         C         0.54106   0.57665   0.27636   0.072667  
         C         C         0.43186   0.95946   0.23786   0.077827  
         C         C         0.97242   0.53933   0.27893   0.085892  
         C         C         0.46937   0.42635   0.22950   0.076392  
         C         C         0.58071   0.04556   0.26190   0.075074  
         H         H         0.71104   0.46084   0.25829   0.121428  
         H         H         0.54786   0.24778   0.24344   0.121721  
         H         H         0.75852   0.29881   0.24460   0.121848  
         H         H         0.29954   0.54350   0.24291   0.123149  
         H         H         0.46681   0.75717   0.26424   0.121619  
         H         H         0.25427   0.70727   0.25365   0.122548  
         H         H         0.82723   0.48963   0.24824   0.079025  
         H         H         0.52621   0.34223   0.27874   0.081187  
         H         H         0.66404   0.17614   0.22421   0.079940  
         H         H         0.18143   0.51548   0.24395   0.078413  
         H         H         0.48739   0.66186   0.23370   0.079258  
         H         H         0.34778   0.82807   0.27235   0.078676  
         N         N         0.93570   0.35739   0.19580   -0.325469           
         N         N         0.65460   0.59027   0.29786   -0.324971           
         N         N         0.42059   0.05716   0.23410   -0.335907           
         N         N         0.07876   0.65276   0.31368   -0.331862           
         N         N         0.35608   0.41279   0.20929   -0.329538           
         N         N         0.59074   0.94693   0.26032   -0.334949           
         N         N         0.06513   0.42704   0.20177   -0.352570           
         N         N         0.58585   0.64938   0.30040   -0.358565           
         N         N         0.35981   0.92770   0.22501   -0.352236           
         N         N         0.94881   0.58225   0.30564   -0.344338           
         N         N         0.42448   0.35345   0.20458   -0.355136           
         N         N         0.65322   0.07754   0.27603   -0.349346           
         S         S         0.34216   0.33415   0.18798   0.447814  
         S         S         0.66990   0.01564   0.27639   0.454904  
         S         S         0.01715   0.66480   0.33354   0.444843  
         S         S         0.66848   0.66889   0.31848   0.446327  
         S         S         0.34234   0.98903   0.22188   0.460954  
         S         S         0.99668   0.34474   0.17518   0.447989  
         C         C         0.73020   0.38026   0.74904   0.060866  
         C         C         0.61101   0.35311   0.74527   0.047881  
         C         C         0.63581   0.25981   0.73871   0.061547  
         C         C         0.25520   0.61470   0.74672   0.055510  
         C         C         0.37512   0.64286   0.75107   0.046399  
         C         C         0.34845   0.73490   0.75385   0.061668  
         C         C         0.68268   0.40215   0.75125   -0.141921           
         C         C         0.58771   0.28226   0.73799   -0.122365           
         C         C         0.70654   0.30893   0.74377   -0.107735           
         C         C         0.30359   0.59343   0.74588   -0.123477           
         C         C         0.39714   0.71323   0.75572   -0.113709           
         C         C         0.27781   0.68554   0.74950   -0.111970           
         C         C         0.80277   0.43076   0.75042   0.070245  
         C         C         0.56271   0.37629   0.75381   0.090307  
         C         C         0.61433   0.18752   0.73793   0.091231  
         C         C         0.18296   0.56363   0.74584   0.086985  
         C         C         0.42481   0.62108   0.74406   0.084552  
         C         C         0.37009   0.80707   0.75338   0.092786  
         N         N         0.84625   0.40982   0.74491   -0.257754           
         N         N         0.57959   0.43902   0.74232   -0.250631           
         N         N         0.55292   0.14401   0.75108   -0.261037           
         N         N         0.13811   0.58324   0.74893   -0.267216           
         N         N         0.40924   0.55878   0.75586   -0.245971           
         N         N         0.43194   0.85040   0.74160   -0.260723           
         C         C         0.91492   0.45381   0.74438   0.080966  
         C         C         0.53638   0.46421   0.74730   0.098824  
         C         C         0.52844   0.07502   0.75077   0.088580  
         C         C         0.06953   0.53876   0.74947   0.103798  
         C         C         0.45300   0.53410   0.75187   0.101399  
         C         C         0.45677   0.91953   0.74228   0.089996  
         C         C         0.95195   0.42103   0.71780   0.106587  
         C         C         0.57065   0.53996   0.77108   0.090296  
         C         C         0.45379   0.02992   0.74127   0.088141  
         C         C         0.03296   0.57176   0.77706   0.101293  
         C         C         0.41884   0.45832   0.72847   0.087116  
         C         C         0.53131   0.96464   0.75168   0.089351  
         C         C         0.02729   0.46209   0.72200   0.084249  
         C         C         0.53067   0.57438   0.77341   0.075794  
         C         C         0.41848   0.95447   0.73567   0.073825  
         C         C         0.95758   0.53061   0.77257   0.086237  
         C         C         0.45888   0.42400   0.72634   0.072806  
         C         C         0.56683   0.04027   0.75783   0.077819  
         H         H         0.69996   0.45715   0.75717   0.122375  
         H         H         0.53290   0.24350   0.73431   0.120597  
         H         H         0.74531   0.29377   0.74475   0.122598  
         H         H         0.28715   0.53868   0.74139   0.121789  
         H         H         0.45187   0.75243   0.75877   0.122502  
         H         H         0.23858   0.70035   0.74718   0.120862  
         H         H         0.81769   0.48511   0.75367   0.078317  
         H         H         0.51415   0.33977   0.77382   0.079792  
         H         H         0.65206   0.17274   0.72686   0.078829  
         H         H         0.16972   0.50998   0.74529   0.078285  
         H         H         0.47373   0.65856   0.72575   0.081230  
         H         H         0.33210   0.82199   0.76216   0.079398  
         N         N         0.92128   0.34860   0.68750   -0.333499           
         N         N         0.64409   0.58783   0.79422   -0.329150           
         N         N         0.40750   0.05237   0.73376   -0.335846           
         N         N         0.06425   0.64436   0.80837   -0.324625           
         N         N         0.34554   0.41053   0.70572   -0.325686           
         N         N         0.57730   0.94198   0.75731   -0.334685           
         N         N         0.05115   0.41935   0.69561   -0.346293           
         N         N         0.57564   0.64719   0.79821   -0.355400           
         N         N         0.34640   0.92261   0.72303   -0.347769           
         N         N         0.93437   0.57391   0.80026   -0.350408           
         N         N         0.41393   0.35116   0.70188   -0.359161           
         N         N         0.63871   0.07208   0.76950   -0.352608           
         S         S         0.33150   0.33184   0.68472   0.446962  
         S         S         0.65558   0.01029   0.76984   0.461896  
         S         S         0.00297   0.65657   0.82892   0.446860  
         S         S         0.65810   0.66653   0.81559   0.446739  
         S         S         0.32887   0.98389   0.71973   0.455184  
         S         S         0.98316   0.33683   0.66850   0.447593 

