
##########################################################################
#               Crystallographic Information Format file
#               Produced by PyCifRW module
#
#  This is a CIF file.  CIF has been adopted by the International
#  Union of Crystallography as the standard for data archiving and
#  transmission.
#
#  For information on this file format, follow the CIF links at
#  http://www.iucr.org
##########################################################################

data_image0

_cell_length_a                          25.4639
_cell_length_b                          25.4672
_cell_length_c                          8.13978
_cell_angle_alpha                       90.2895
_cell_angle_beta                        91.1886
_cell_angle_gamma                       119.972
_symmetry_space_group_name_H-M          'P 1'
_space_group_name_Hall                  'P 1'
loop_
  _atom_site_type_symbol
  _atom_site_label
  _atom_site_fract_x
  _atom_site_fract_y
  _atom_site_fract_z
  _atom_site_charge
         C         C         0.38814   0.66637   0.97367   0.094628  
         C         C         0.32746   0.71858   0.96909   0.092107  
         C         C         0.27521   0.60599   0.96638   0.094650  
         C         C         0.38569   0.72070   0.97408   0.094813  
         C         C         0.27300   0.66209   0.96520   0.095825  
         C         C         0.33186   0.60801   0.97145   0.096377  
         N         N         0.33417   0.55656   0.97742   -0.259155           
         N         N         0.43667   0.77488   0.98238   -0.257090           
         N         N         0.21913   0.65965   0.96624   -0.257618           
         N         N         0.22321   0.55269   0.97090   -0.254512           
         N         N         0.44189   0.66833   0.98174   -0.258361           
         N         N         0.32618   0.77062   0.97476   -0.255441           
         C         C         0.78086   0.67641   0.99110   0.061426  
         C         C         0.32433   0.10427   0.97892   0.061262  
         C         C         0.88948   0.21646   0.99487   0.060759  
         C         C         0.84896   0.63748   0.93690   -0.106488           
         C         C         0.36065   0.21078   0.92552   -0.105949           
         C         C         0.78100   0.14778   0.95089   -0.107218           
         C         C         0.82793   0.72541   0.08051   -0.107277           
         C         C         0.27913   0.10289   0.07851   -0.113119           
         C         C         0.89372   0.17030   0.07805   -0.109630           
         C         C         0.79237   0.63280   0.91898   -0.126920           
         C         C         0.36491   0.15888   0.90253   -0.125994           
         C         C         0.83239   0.20420   0.93164   -0.128576           
         H         H         0.85838   0.60425   0.88088   0.120288  
         H         H         0.39152   0.25300   0.86619   0.117748  
         H         H         0.73701   0.13826   0.90151   0.120587  
         H         H         0.81848   0.75866   0.13582   0.112759  
         H         H         0.24837   0.06055   0.13723   0.113715  
         H         H         0.93781   0.18025   0.12771   0.115019  
         H         H         0.75663   0.59554   0.84651   0.108871  
         H         H         0.39937   0.16000   0.82330   0.107979  
         H         H         0.82894   0.23945   0.86537   0.108297  
         C         C         0.31446   0.20882   0.02194   0.052097  
         C         C         0.78557   0.10134   0.03120   0.053962  
         C         C         0.89619   0.68710   0.02378   0.053510  
         C         C         0.27395   0.15420   0.09816   -0.129024           
         C         C         0.84268   0.11368   0.09463   -0.129790           
         C         C         0.88482   0.73092   0.09470   -0.128596           
         H         H         0.92134   0.76933   0.16193   0.104260  
         H         H         0.23848   0.15265   0.17400   0.104297  
         H         H         0.84652   0.07820   0.15834   0.105259  
         C         C         0.28275   0.50293   0.98430   0.126979  
         C         C         0.49052   0.77766   0.99162   0.130789  
         C         C         0.21701   0.71112   0.97419   0.130077  
         C         C         0.22514   0.50131   0.98326   0.126480  
         C         C         0.49312   0.72219   0.99235   0.127289  
         C         C         0.27279   0.76883   0.97988   0.125498  
         C         C         0.29368   0.45085   0.99170   0.019596  
         C         C         0.54206   0.84088   -0.00042  0.021784  
         C         C         0.15419   0.70039   0.97987   0.021271  
         C         C         0.34994   0.46155   0.05818   -0.089577           
         C         C         0.53348   0.88548   0.07804   -0.091537           
         C         C         0.11054   0.64775   0.05838   -0.093261           
         C         C         0.36561   0.41657   0.05855   -0.164150           
         C         C         0.57842   0.94618   0.08016   -0.163835           
         C         C         0.05019   0.63294   0.06238   -0.163663           
         C         C         0.32499   0.35836   0.99417   0.211374  
         C         C         0.63428   0.96423   0.00644   0.210297  
         C         C         0.03149   0.67113   0.98974   0.211036  
         C         C         0.26866   0.34715   0.92873   -0.189910           
         C         C         0.64297   0.91999   0.92717   -0.188539           
         C         C         0.07470   0.72357   0.91056   -0.190505           
         C         C         0.25352   0.39264   0.92772   -0.113233           
         C         C         0.59738   0.85952   0.92367   -0.112463           
         C         C         0.13484   0.73752   0.90522   -0.111027           
         H         H         0.38127   0.50639   0.10881   0.119266  
         H         H         0.49052   0.87126   0.13660   0.119985  
         H         H         0.12523   0.61870   0.11634   0.120820  
         H         H         0.40879   0.42528   0.11196   0.125039  
         H         H         0.57194   0.98029   0.14261   0.124912  
         H         H         0.01720   0.59307   0.12670   0.125597  
         H         H         0.23783   0.30301   0.87309   0.108083  
         H         H         0.68480   0.93391   0.86285   0.107109  
         H         H         0.06026   0.75212   0.84839   0.105304  
         H         H         0.20980   0.38243   0.87617   0.103402  
         H         H         0.60475   0.82621   0.86097   0.098862  
         H         H         0.16719   0.77805   0.84289   0.099592  
         C         C         0.16449   0.44686   -0.00057  0.040442  
         C         C         0.54895   0.71793   0.00710   0.036580  
         C         C         0.27884   0.82963   0.99492   0.033799  
         C         C         0.15505   0.39944   0.10308   -0.121997           
         C         C         0.60010   0.75994   0.09933   -0.122572           
         C         C         0.23810   0.84030   0.08218   -0.122864           
         C         C         0.09794   0.34892   0.11771   -0.147265           
         C         C         0.65146   0.75437   0.11322   -0.150273           
         C         C         0.24675   0.89833   0.09897   -0.155385           
         C         C         0.04779   0.34395   0.02786   0.196241  
         C         C         0.65380   0.70636   0.03425   0.200819  
         C         C         0.29611   0.94804   0.02643   0.203972  
         C         C         0.05655   0.39282   0.92850   -0.163887           
         C         C         0.60172   0.66276   0.94573   -0.167254           
         C         C         0.33845   0.93803   0.94308   -0.169858           
         C         C         0.11384   0.44362   0.91566   -0.094262           
         C         C         0.55025   0.66839   0.93306   -0.094490           
         C         C         0.32992   0.87982   0.92845   -0.091894           
         H         H         0.19339   0.40271   0.17211   0.094793  
         H         H         0.59911   0.79722   0.16068   0.095714  
         H         H         0.19968   0.80261   0.13836   0.097401  
         H         H         0.09045   0.31208   0.19844   0.116716  
         H         H         0.69103   0.78679   0.18553   0.117340  
         H         H         0.21578   0.90679   0.16917   0.117508  
         H         H         0.01875   0.39064   0.85802   0.111915  
         H         H         0.60153   0.62445   0.88554   0.112303  
         H         H         0.37801   0.97583   0.88955   0.114421  
         H         H         0.12077   0.48131   0.83891   0.119152  
         H         H         0.51006   0.63481   0.86497   0.120959  
         H         H         0.36239   0.87176   0.86450   0.120780  
         N         N         0.34215   0.31408   0.98880   -0.272059           
         N         N         0.67887   0.02562   0.00613   -0.272525           
         N         N         0.97044   0.65540   0.99084   -0.270195           
         C         C         0.30498   0.26051   0.04014   0.071623  
         C         C         0.73388   0.04024   0.04612   0.068348  
         C         C         0.95727   0.69587   0.03709   0.068030  
         H         H         0.26303   0.25105   0.10149   0.062624  
         H         H         0.74452   0.00617   0.09436   0.062362  
         H         H         0.99253   0.73989   0.08893   0.062829  
         N         N         0.99363   0.28927   0.04820   -0.296589           
         N         N         0.70885   0.70695   0.05438   -0.298246           
         N         N         0.29847   0.00368   0.04895   -0.295706           
         C         C         0.94335   0.27562   0.97131   0.062763  
         C         C         0.72182   0.67220   0.96897   0.065233  
         C         C         0.32719   0.04888   0.95232   0.070435  
         H         H         0.93821   0.30613   0.88567   0.071912  
         H         H         0.69081   0.63932   0.87580   0.071975  
         H         H         0.35223   0.04746   0.84551   0.072695  
         C         C         0.39519   0.67433   0.48134   0.093327  
         C         C         0.33339   0.72535   0.47694   0.094157  
         C         C         0.28279   0.61260   0.48573   0.092665  
         C         C         0.39232   0.72847   0.47773   0.096800  
         C         C         0.27952   0.66819   0.48109   0.096033  
         C         C         0.33979   0.61563   0.48632   0.095654  
         N         N         0.34357   0.56491   0.49451   -0.257865           
         N         N         0.44358   0.78256   0.47938   -0.259704           
         N         N         0.22506   0.66442   0.48311   -0.258189           
         N         N         0.23152   0.55890   0.49410   -0.256697           
         N         N         0.44891   0.67647   0.48672   -0.255080           
         N         N         0.33045   0.77659   0.47940   -0.256348           
         C         C         0.78056   0.67179   0.48562   0.061067  
         C         C         0.32485   0.10841   0.48257   0.062450  
         C         C         0.89844   0.22376   0.48961   0.059976  
         C         C         0.84899   0.63351   0.42843   -0.102675           
         C         C         0.36641   0.21692   0.44958   -0.105243           
         C         C         0.79084   0.15455   0.43472   -0.105536           
         C         C         0.82724   0.71971   0.57888   -0.109647           
         C         C         0.27438   0.10529   0.55960   -0.108903           
         C         C         0.90051   0.17952   0.58813   -0.112102           
         C         C         0.79233   0.62880   0.41069   -0.127606           
         C         C         0.37045   0.16494   0.42624   -0.126745           
         C         C         0.84282   0.21034   0.41305   -0.127058           
         H         H         0.85860   0.60080   0.37029   0.117386  
         H         H         0.40145   0.26073   0.40690   0.117995  
         H         H         0.74797   0.14374   0.37449   0.117072  
         H         H         0.81740   0.75226   0.63693   0.113924  
         H         H         0.23950   0.06154   0.60262   0.113601  
         H         H         0.94360   0.19054   0.64700   0.114591  
         H         H         0.75682   0.59184   0.33704   0.108254  
         H         H         0.40918   0.16780   0.36377   0.110087  
         H         H         0.84082   0.24377   0.33435   0.107309  
         C         C         0.31551   0.21343   0.52460   0.054385  
         C         C         0.79340   0.10986   0.52994   0.052830  
         C         C         0.89595   0.68228   0.51846   0.052229  
         C         C         0.26939   0.15677   0.57796   -0.129153           
         C         C         0.84905   0.12334   0.60644   -0.129341           
         C         C         0.88413   0.72520   0.59329   -0.128063           
         H         H         0.92022   0.76291   0.66368   0.104918  
         H         H         0.22977   0.15372   0.63575   0.105786  
         H         H         0.85149   0.08911   0.68067   0.106578  
         C         C         0.29275   0.51100   0.50176   0.133803  
         C         C         0.49773   0.78554   0.48735   0.130631  
         C         C         0.22130   0.71508   0.48485   0.131383  
         C         C         0.23447   0.50788   0.50263   0.124249  
         C         C         0.50040   0.73008   0.49139   0.124581  
         C         C         0.27638   0.77347   0.48623   0.126113  
         C         C         0.30449   0.45944   0.50928   0.021824  
         C         C         0.54945   0.84884   0.49289   0.020658  
         C         C         0.15772   0.70260   0.48652   0.017391  
         C         C         0.35465   0.46635   0.60385   -0.094256           
         C         C         0.54058   0.89411   0.56613   -0.091505           
         C         C         0.11405   0.64887   0.56128   -0.089983           
         C         C         0.36992   0.42097   0.60756   -0.164094           
         C         C         0.58554   0.95482   0.56659   -0.164179           
         C         C         0.05308   0.63219   0.55969   -0.165520           
         C         C         0.33475   0.36651   0.51793   0.209766  
         C         C         0.64211   0.97258   0.49758   0.209663  
         C         C         0.03360   0.66969   0.48633   0.212542  
         C         C         0.28512   0.35970   0.42179   -0.189418           
         C         C         0.65134   0.92769   0.42482   -0.188668           
         C         C         0.07682   0.72322   0.41127   -0.190134           
         C         C         0.27074   0.40560   0.41756   -0.108778           
         C         C         0.60555   0.86722   0.42150   -0.113940           
         C         C         0.13757   0.73890   0.41038   -0.111336           
         H         H         0.38138   0.50803   0.67522   0.118928  
         H         H         0.49735   0.88047   0.62239   0.120359  
         H         H         0.12932   0.62059   0.62125   0.119439  
         H         H         0.40797   0.42635   0.68351   0.124018  
         H         H         0.57815   0.98905   0.62451   0.124607  
         H         H         0.02015   0.59124   0.62028   0.125203  
         H         H         0.25953   0.31928   0.34484   0.105655  
         H         H         0.69388   0.94104   0.36491   0.106111  
         H         H         0.06182   0.75125   0.34865   0.105812  
         H         H         0.23247   0.39903   0.34151   0.096575  
         H         H         0.61389   0.83387   0.36296   0.101673  
         H         H         0.16961   0.78011   0.34988   0.101053  
         C         C         0.17437   0.45235   0.51392   0.032567  
         C         C         0.55525   0.72373   0.50544   0.036073  
         C         C         0.28083   0.83372   0.49922   0.036527  
         C         C         0.16560   0.39942   0.59042   -0.124691           
         C         C         0.60824   0.76515   0.59253   -0.125156           
         C         C         0.24031   0.84392   0.58914   -0.122327           
         C         C         0.10801   0.34941   0.60314   -0.155594           
         C         C         0.65710   0.75542   0.60927   -0.153834           
         C         C         0.24797   0.90164   0.60517   -0.151017           
         C         C         0.05678   0.34963   0.53579   0.205592  
         C         C         0.65552   0.70443   0.53629   0.204103  
         C         C         0.29560   0.95143   0.52761   0.199447  
         C         C         0.06506   0.40305   0.46123   -0.170489           
         C         C         0.60170   0.66156   0.45304   -0.168466           
         C         C         0.33764   0.94183   0.44127   -0.165713           
         C         C         0.12271   0.45346   0.45192   -0.089415           
         C         C         0.55257   0.67108   0.43871   -0.091884           
         C         C         0.33035   0.88410   0.42810   -0.093611           
         H         H         0.20428   0.39783   0.64219   0.098778  
         H         H         0.61101   0.80527   0.64789   0.100286  
         H         H         0.20266   0.80608   0.64742   0.096591  
         H         H         0.10097   0.30903   0.66679   0.118348  
         H         H         0.69788   0.78701   0.67875   0.118134  
         H         H         0.21749   0.90970   0.67883   0.117059  
         H         H         0.02622   0.40507   0.41072   0.113838  
         H         H         0.59841   0.62082   0.39898   0.113794  
         H         H         0.37573   0.97937   0.38233   0.113439  
         H         H         0.12930   0.49496   0.39593   0.120152  
         H         H         0.51095   0.63803   0.37484   0.120982  
         H         H         0.36255   0.87661   0.36089   0.120414  
         N         N         0.35036   0.32099   0.51837   -0.270897           
         N         N         0.68693   0.03393   0.49544   -0.270925           
         N         N         0.97202   0.65247   0.48293   -0.271442           
         C         C         0.30785   0.26616   0.54367   0.067940  
         C         C         0.74116   0.04901   0.54559   0.071607  
         C         C         0.95722   0.69140   0.53271   0.071067  
         H         H         0.26260   0.25648   0.58124   0.063208  
         H         H         0.75069   0.01553   0.60354   0.063452  
         H         H         0.99143   0.73467   0.59041   0.061904  
         N         N         0.00149   0.29632   0.55552   -0.294035           
         N         N         0.70867   0.70143   0.55695   -0.296771           
         N         N         0.29602   0.00637   0.54660   -0.298918           
         C         C         0.95399   0.28142   0.46332   0.070687  
         C         C         0.72198   0.66895   0.46268   0.070567  
         C         C         0.32879   0.05345   0.45922   0.063600  
         H         H         0.95315   0.30892   0.36051   0.072486  
         H         H         0.69240   0.64037   0.36034   0.071794  
         H         H         0.35932   0.05457   0.36404   0.074560 

