
##########################################################################
#               Crystallographic Information Format file
#               Produced by PyCifRW module
#
#  This is a CIF file.  CIF has been adopted by the International
#  Union of Crystallography as the standard for data archiving and
#  transmission.
#
#  For information on this file format, follow the CIF links at
#  http://www.iucr.org
##########################################################################

data_image0

_cell_length_a                          29.8026
_cell_length_b                          29.4923
_cell_length_c                          7.86157
_cell_angle_alpha                       93.4054
_cell_angle_beta                        118.747
_cell_angle_gamma                       119.517
_symmetry_space_group_name_H-M          'P 1'
_space_group_name_Hall                  'P 1'
loop_
  _atom_site_type_symbol
  _atom_site_label
  _atom_site_fract_x
  _atom_site_fract_y
  _atom_site_fract_z
  _atom_site_charge
         O         O         0.33403   0.58347   0.07474   -0.471586           
         O         O         0.46123   0.76031   0.06298   -0.461925           
         O         O         0.27841   0.71013   0.02988   -0.467052           
         N         N         0.42659   0.60735   0.05432   -0.233057           
         N         N         0.42776   0.82700   0.02542   -0.229704           
         N         N         0.21235   0.61494   0.04666   -0.230008           
         C         C         0.34503   0.63039   0.06462   0.351988  
         C         C         0.41305   0.72539   0.05824   0.355037  
         C         C         0.31533   0.69836   0.04241   0.358401  
         C         C         0.43656   0.65715   0.05697   0.112945  
         C         C         0.37922   0.78800   0.02704   0.116193  
         C         C         0.25309   0.60583   0.05595   0.108303  
         C         C         0.46101   0.58920   0.04618   0.158369  
         C         C         0.44229   0.87846   0.00828   0.167806  
         C         C         0.15820   0.57863   0.03785   0.159890  
         C         C         0.51674   0.62336   0.05897   -0.158584           
         C         C         0.40751   0.89899   0.99331   -0.145143           
         C         C         0.13840   0.52526   0.04619   -0.147627           
         C         C         0.54712   0.60052   0.05070   -0.160964           
         C         C         0.42832   0.95175   0.98275   -0.148169           
         C         C         0.08268   0.49289   0.03155   -0.165629           
         C         C         0.52220   0.54399   0.03045   0.147553  
         C         C         0.48341   0.98367   0.98867   0.151791  
         C         C         0.04758   0.51383   0.01094   0.145140  
         N         N         0.46888   0.51144   0.02106   -0.245511           
         N         N         0.51622   0.96329   -0.00001  -0.241986           
         N         N         0.06802   0.56605   0.00944   -0.248076           
         C         C         0.43983   0.53343   0.02902   -0.011730           
         C         C         0.49602   0.91269   0.00899   0.001521  
         C         C         0.12116   0.59685   0.02193   0.014176  
         C         C         0.39838   0.67043   0.06215   -0.235523           
         C         C         0.37026   0.73799   0.04482   -0.243202           
         C         C         0.30416   0.64518   0.05514   -0.239085           
         H         H         0.47552   0.68843   0.05279   0.101287  
         H         H         0.34483   0.79473   0.01100   0.103326  
         H         H         0.24646   0.56651   0.06449   0.102053  
         H         H         0.53620   0.66697   0.07466   0.126225  
         H         H         0.36571   0.87486   0.99313   0.122679  
         H         H         0.16606   0.50953   0.06554   0.128999  
         H         H         0.38693   0.58131   0.05576   0.272443  
         H         H         0.45619   0.81404   0.03938   0.272406  
         H         H         0.22494   0.65457   0.03866   0.270658  
         H         H         0.39697   0.50573   0.02126   0.108877  
         H         H         0.52368   0.89751   0.01844   0.103042  
         H         H         0.13621   0.63872   0.01920   0.108815  
         H         H         0.59032   0.62712   0.06060   0.112829  
         H         H         0.40189   0.96812   0.97329   0.110965  
         H         H         0.06734   0.45170   0.04024   0.112834  
         O         O         0.72097   0.44820   0.95239   -0.471846           
         O         O         0.57109   0.27976   0.94532   -0.466930           
         O         O         0.74173   0.29840   0.96484   -0.480171           
         N         N         0.63186   0.43870   0.96835   -0.228394           
         N         N         0.58544   0.20137   0.96800   -0.237884           
         N         N         0.82129   0.39057   0.95998   -0.228966           
         C         C         0.70068   0.39876   0.95145   0.348323  
         C         C         0.62066   0.30831   0.94917   0.354569  
         C         C         0.71184   0.31842   0.95728   0.348284  
         C         C         0.61408   0.38691   0.96376   0.129093  
         C         C         0.63628   0.23352   0.96637   0.121006  
         C         C         0.78702   0.40784   0.95695   0.123188  
         C         C         0.60569   0.46526   0.98755   0.167626  
         C         C         0.56110   0.14838   0.97927   0.164458  
         C         C         0.87662   0.42076   0.96885   0.168682  
         C         C         0.55177   0.43882   0.98969   -0.008687           
         C         C         0.58665   0.11854   0.98583   -0.007854           
         C         C         0.90884   0.47789   0.99322   -0.001333           
         N         N         0.52637   0.46406   0.00527   -0.238192           
         N         N         0.56143   0.06686   0.98757   -0.240411           
         N         N         0.96191   0.50636   0.00362   -0.243187           
         C         C         0.55279   0.51791   0.01774   0.145269  
         C         C         0.50886   0.04097   0.98508   0.140267  
         C         C         0.98749   0.48009   0.99278   0.142779  
         C         C         0.60709   0.54761   0.01838   -0.162358           
         C         C         0.48121   0.06843   0.98416   -0.164583           
         C         C         0.95792   0.42285   0.96597   -0.158920           
         C         C         0.63366   0.52135   0.00320   -0.147114           
         C         C         0.50727   0.12216   0.98069   -0.156045           
         C         C         0.90227   0.39305   0.95281   -0.154328           
         C         C         0.64509   0.36521   0.95175   -0.244690           
         C         C         0.65529   0.28612   0.95537   -0.244957           
         C         C         0.73328   0.37437   0.95377   -0.256654           
         H         H         0.57393   0.36021   0.96976   0.104137  
         H         H         0.66383   0.21851   0.97471   0.102370  
         H         H         0.80106   0.44959   0.95629   0.108779  
         H         H         0.52797   0.39527   0.97839   0.099373  
         H         H         0.62904   0.13707   0.98847   0.099364  
         H         H         0.89163   0.50194   0.00877   0.106167  
         H         H         0.67172   0.45941   0.96467   0.272187  
         H         H         0.56463   0.22231   0.96125   0.268539  
         H         H         0.80202   0.34958   0.95885   0.273037  
         H         H         0.67525   0.54345   0.00145   0.127914  
         H         H         0.48675   0.14418   0.97997   0.134083  
         H         H         0.87824   0.34862   0.93003   0.130742  
         H         H         0.62843   0.59083   0.02770   0.113461  
         H         H         0.44001   0.04853   0.98801   0.113435  
         H         H         0.97730   0.40111   0.95102   0.111695  
         O         O         0.29463   0.55455   0.55432   -0.478921           
         O         O         0.42708   0.73110   0.55148   -0.469173           
         O         O         0.24747   0.68708   0.52861   -0.474429           
         N         N         0.38948   0.57791   0.54531   -0.228746           
         N         N         0.39775   0.80032   0.52094   -0.235039           
         N         N         0.17760   0.59123   0.53867   -0.227579           
         C         C         0.30878   0.60296   0.55505   0.346690  
         C         C         0.37921   0.69751   0.55062   0.356958  
         C         C         0.28339   0.67398   0.54138   0.347196  
         C         C         0.39954   0.62745   0.54522   0.127663  
         C         C         0.34928   0.76263   0.52537   0.126564  
         C         C         0.21819   0.58167   0.54964   0.117553  
         C         C         0.42243   0.55911   0.52829   0.163672  
         C         C         0.41213   0.85130   0.49951   0.164102  
         C         C         0.12268   0.55436   0.52571   0.165746  
         C         C         0.47457   0.59197   0.52102   -0.161136           
         C         C         0.37536   0.87054   0.47119   -0.150666           
         C         C         0.10318   0.50115   0.53550   -0.161486           
         C         C         0.50422   0.56903   0.50637   -0.161165           
         C         C         0.39665   0.92349   0.46204   -0.158027           
         C         C         0.04704   0.46826   0.51826   -0.156711           
         C         C         0.48225   0.51392   0.50113   0.146999  
         C         C         0.45358   0.95652   0.47915   0.146415  
         C         C         0.01142   0.48874   0.49544   0.144062  
         N         N         0.43171   0.48234   0.50685   -0.238654           
         N         N         0.48746   0.93676   0.49773   -0.239149           
         N         N         0.03097   0.54037   0.48887   -0.245575           
         C         C         0.40315   0.50426   0.51968   -0.005096           
         C         C         0.46734   0.88629   0.50835   -0.009293           
         C         C         0.08415   0.57148   0.50189   0.007523  
         C         C         0.36269   0.64214   0.55347   -0.248366           
         C         C         0.33837   0.71210   0.54159   -0.243928           
         C         C         0.27031   0.62024   0.55216   -0.253171           
         H         H         0.43820   0.65817   0.53866   0.100915  
         H         H         0.31689   0.77147   0.51544   0.101213  
         H         H         0.21041   0.54183   0.55528   0.100618  
         H         H         0.49151   0.63443   0.52472   0.124138  
         H         H         0.33137   0.84505   0.45771   0.125083  
         H         H         0.13108   0.48561   0.55615   0.124792  
         H         H         0.35022   0.55228   0.54872   0.272039  
         H         H         0.42465   0.78591   0.53082   0.269587  
         H         H         0.19067   0.63096   0.53258   0.276372  
         H         H         0.36256   0.47737   0.52424   0.104455  
         H         H         0.49625   0.87190   0.52601   0.105724  
         H         H         0.09738   0.61224   0.48969   0.110770  
         H         H         0.54402   0.59412   0.49733   0.111640  
         H         H         0.36850   0.93871   0.44169   0.113796  
         H         H         0.03189   0.42714   0.52722   0.113347  
         O         O         0.68093   0.41967   0.42546   -0.467215           
         O         O         0.53655   0.25092   0.43432   -0.463184           
         O         O         0.71171   0.27625   0.47029   -0.469566           
         N         N         0.59325   0.40932   0.44915   -0.227643           
         N         N         0.55484   0.17509   0.46631   -0.234194           
         N         N         0.78678   0.36705   0.45234   -0.229357           
         C         C         0.66363   0.37160   0.43665   0.354578  
         C         C         0.58652   0.28106   0.44144   0.351260  
         C         C         0.68003   0.29463   0.45826   0.356830  
         C         C         0.57625   0.35784   0.44750   0.117669  
         C         C         0.60574   0.20835   0.46585   0.116477  
         C         C         0.75149   0.38348   0.44521   0.108436  
         C         C         0.56636   0.43564   0.46378   0.164083  
         C         C         0.53018   0.12148   0.47268   0.157525  
         C         C         0.84131   0.39655   0.45718   0.161512  
         C         C         0.51017   0.40815   0.45220   -0.010034           
         C         C         0.55550   0.09170   0.47446   -0.014267           
         C         C         0.87421   0.45388   0.48520   0.003468  
         N         N         0.48427   0.43318   0.46426   -0.242871           
         N         N         0.53096   0.04002   0.47666   -0.239820           
         N         N         0.92703   0.48207   0.49414   -0.244314           
         C         C         0.51278   0.48793   0.48763   0.155991  
         C         C         0.47872   0.01382   0.47580   0.151064  
         C         C         0.95148   0.45507   0.47813   0.142811  
         C         C         0.56907   0.51856   0.49986   -0.147677           
         C         C         0.45009   0.04043   0.47295   -0.165019           
         C         C         0.92082   0.39742   0.44554   -0.171884           
         C         C         0.59591   0.49238   0.48725   -0.140339           
         C         C         0.47602   0.09446   0.47245   -0.151915           
         C         C         0.86532   0.36791   0.43344   -0.132809           
         C         C         0.60881   0.33739   0.43988   -0.237958           
         C         C         0.62323   0.26075   0.45353   -0.242548           
         C         C         0.69887   0.34960   0.44707   -0.241415           
         H         H         0.53651   0.33109   0.45548   0.104301  
         H         H         0.63492   0.19493   0.47858   0.105881  
         H         H         0.76332   0.42405   0.43505   0.106326  
         H         H         0.48473   0.36377   0.43091   0.099133  
         H         H         0.59727   0.11041   0.47326   0.105050  
         H         H         0.85752   0.47817   0.50344   0.104252  
         H         H         0.63302   0.43013   0.44457   0.269428  
         H         H         0.53267   0.19499   0.45587   0.270340  
         H         H         0.76847   0.32665   0.45818   0.269773  
         H         H         0.63911   0.51507   0.49443   0.127137  
         H         H         0.45523   0.11611   0.47375   0.133590  
         H         H         0.83998   0.32309   0.40415   0.131916  
         H         H         0.59207   0.56256   0.51841   0.111035  
         H         H         0.40856   0.01985   0.47497   0.112754  
         H         H         0.93921   0.37520   0.42526   0.114768 

