
##########################################################################
#               Crystallographic Information Format file
#               Produced by PyCifRW module
#
#  This is a CIF file.  CIF has been adopted by the International
#  Union of Crystallography as the standard for data archiving and
#  transmission.
#
#  For information on this file format, follow the CIF links at
#  http://www.iucr.org
##########################################################################

data_image0

_cell_length_a                          37.4508
_cell_length_b                          37.6329
_cell_length_c                          8.17716
_cell_angle_alpha                       86.9845
_cell_angle_beta                        120.145
_cell_angle_gamma                       119.952
_symmetry_space_group_name_H-M          'P 1'
_space_group_name_Hall                  'P 1'
loop_
  _atom_site_type_symbol
  _atom_site_label
  _atom_site_fract_x
  _atom_site_fract_y
  _atom_site_fract_z
  _atom_site_charge
         C         C         0.98288   0.45829   0.04249   -0.131857           
         C         C         0.02693   0.47835   0.05180   -0.134791           
         C         C         0.04689   0.51860   0.01603   0.065103  
         C         C         0.90919   0.45628   0.98707   0.050922  
         C         C         0.11325   0.51746   0.01282   -0.123041           
         C         C         0.15645   0.53748   0.01607   -0.178430           
         C         C         0.18152   0.58112   0.02808   0.220687  
         C         C         0.16283   0.60429   0.04279   -0.187974           
         C         C         0.11973   0.58387   0.04070   -0.112112           
         N         N         0.77794   0.39990   0.97967   -0.230768           
         C         C         0.75015   0.36059   0.98630   0.115320  
         C         C         0.70948   0.34776   0.99558   -0.251333           
         C         C         0.69527   0.37711   0.00048   0.357087  
         H         H         0.96997   0.42780   0.07717   0.099409  
         H         H         0.04691   0.46279   0.09290   0.096955  
         H         H         0.09401   0.48339   -0.00285  0.103485  
         H         H         0.17080   0.51934   0.00533   0.124834  
         H         H         0.18203   0.63830   0.05735   0.123300  
         H         H         0.10691   0.60291   0.05715   0.102689  
         H         H         0.75929   0.33739   0.98441   0.101807  
         O         O         0.72021   0.41563   0.00125   -0.480221           
         H         H         0.76535   0.41887   0.98655   0.273123  
         C         C         0.54833   0.52175   0.03000   -0.129986           
         C         C         0.52832   0.54516   0.02020   -0.129531           
         C         C         0.48135   0.52586   0.98929   0.061556  
         C         C         0.54272   0.45244   0.01043   0.036483  
         C         C         0.47833   0.59139   0.95316   -0.120905           
         C         C         0.45923   0.61485   0.95476   -0.184000           
         C         C         0.42155   0.59844   0.98980   0.206860  
         C         C         0.40416   0.55825   0.02713   -0.182024           
         C         C         0.42381   0.53526   0.02640   -0.116617           
         N         N         0.59875   0.37847   0.01194   -0.234182           
         C         C         0.63821   0.38944   0.00770   0.123167  
         C         C         0.65145   0.36104   0.00536   -0.244982           
         C         C         0.62268   0.31734   0.00800   0.358201  
         H         H         0.58499   0.53827   0.05644   0.103846  
         H         H         0.55008   0.57927   0.04030   0.104778  
         H         H         0.50614   0.60442   0.91822   0.100765  
         H         H         0.47250   0.64579   0.92399   0.125918  
         H         H         0.37681   0.54561   0.06446   0.113620  
         H         H         0.41135   0.50519   0.06499   0.105146  
         H         H         0.66118   0.42184   0.00684   0.102902  
         O         O         0.58469   0.30381   0.01275   -0.477413           
         H         H         0.58101   0.34671   0.01784   0.276125  
         C         C         0.47351   0.01951   0.93783   -0.131658           
         C         C         0.45055   0.97701   0.93904   -0.133039           
         C         C         0.47468   0.95535   0.98451   0.062283  
         C         C         0.54698   0.08838   0.98576   0.040748  
         C         C         0.41007   0.89131   0.00901   -0.121049           
         C         C         0.38660   0.84886   0.01021   -0.176069           
         C         C         0.40305   0.82375   0.99308   0.205870  
         C         C         0.44331   0.84228   0.97312   -0.192777           
         C         C         0.46617   0.88472   0.97047   -0.113592           
         N         N         0.62249   0.21919   0.00805   -0.231218           
         C         C         0.61118   0.24773   0.01014   0.119002  
         C         C         0.63895   0.28930   0.00640   -0.242135           
         C         C         0.68239   0.30393   0.00211   0.352118  
         H         H         0.45283   0.03440   0.89829   0.103083  
         H         H         0.41276   0.96007   0.90072   0.102791  
         H         H         0.39769   0.91028   0.03061   0.105669  
         H         H         0.35620   0.83505   0.03053   0.122647  
         H         H         0.45621   0.82353   0.95443   0.119401  
         H         H         0.49579   0.89764   0.94590   0.103281  
         H         H         0.57904   0.23842   0.01392   0.101685  
         O         O         0.69667   0.27938   0.00402   -0.480610           
         H         H         0.65475   0.23306   0.00756   0.272642  
         C         C         0.01972   0.53739   0.96967   -0.129390           
         C         C         0.97587   0.51747   0.96132   -0.131241           
         C         C         0.95583   0.47720   -0.00323  0.065715  
         C         C         0.09329   0.53990   0.02364   0.051792  
         C         C         0.89034   0.47966   -0.00050  -0.116885           
         C         C         0.84686   0.46049   0.99335   -0.178063           
         C         C         0.82020   0.41675   0.97610   0.216805  
         C         C         0.83753   0.39254   0.95842   -0.188801           
         C         C         0.88115   0.41217   0.96428   -0.113003           
         N         N         0.22366   0.59910   0.02262   -0.232211           
         C         C         0.25151   0.63893   0.02091   0.114381  
         C         C         0.29217   0.65241   0.01009   -0.250574           
         C         C         0.30638   0.62327   0.00112   0.357557  
         H         H         0.03220   0.56762   0.93252   0.099820  
         H         H         0.95596   0.53309   0.92073   0.099076  
         H         H         0.91083   0.51386   0.02022   0.102643  
         H         H         0.83359   0.47937   0.00717   0.124829  
         H         H         0.81697   0.35838   0.93892   0.121587  
         H         H         0.89303   0.39240   0.94608   0.102524  
         H         H         0.24268   0.66204   0.02916   0.102325  
         O         O         0.28132   0.58444   -0.00331  -0.480255           
         H         H         0.23649   0.58064   0.01161   0.270850  
         C         C         0.45550   0.48167   0.96756   -0.129901           
         C         C         0.47549   0.45829   0.97710   -0.130024           
         C         C         0.52248   0.47757   0.00833   0.061766  
         C         C         0.46096   0.55079   0.98792   0.038113  
         C         C         0.52456   0.41167   0.04318   -0.119855           
         C         C         0.54322   0.38776   0.04228   -0.185277           
         C         C         0.58150   0.40399   0.01105   0.206776  
         C         C         0.59994   0.44447   0.97690   -0.184203           
         C         C         0.58053   0.46781   0.97603   -0.113436           
         N         N         0.40372   0.62341   0.98990   -0.234655           
         C         C         0.36395   0.61168   0.99314   0.124219  
         C         C         0.35043   0.63981   -0.00246  -0.246032           
         C         C         0.37922   0.68375   -0.00212  0.358473  
         H         H         0.41882   0.46510   0.94097   0.105439  
         H         H         0.45365   0.42415   0.95607   0.105133  
         H         H         0.49643   0.39890   0.07630   0.101340  
         H         H         0.52921   0.35663   0.07100   0.125962  
         H         H         0.62787   0.45711   0.94279   0.115276  
         H         H         0.59394   0.49814   0.94018   0.105077  
         H         H         0.34099   0.57899   0.99120   0.102619  
         O         O         0.41739   0.69779   0.99379   -0.475970           
         H         H         0.42121   0.65541   0.98611   0.272502  
         C         C         0.52290   0.97865   0.02571   -0.131542           
         C         C         0.54587   0.02118   0.02489   -0.130647           
         C         C         0.52203   0.04305   0.98230   0.061104  
         C         C         0.45047   0.91052   0.98906   0.039602  
         C         C         0.58950   0.10877   0.97965   -0.120705           
         C         C         0.61423   0.15184   0.99026   -0.177414           
         C         C         0.59687   0.17639   0.00428   0.203766  
         C         C         0.55424   0.15662   0.00846   -0.189812           
         C         C         0.53028   0.11359   0.00083   -0.113165           
         N         N         0.37875   0.78152   -0.00028  -0.230382           
         C         C         0.39000   0.75303   0.99597   0.117477  
         C         C         0.36271   0.71149   0.00115   -0.242641           
         C         C         0.31936   0.69654   0.00673   0.349952  
         H         H         0.54331   0.96353   0.06328   0.103743  
         H         H         0.58342   0.03787   0.06071   0.101600  
         H         H         0.60287   0.09048   0.96072   0.106830  
         H         H         0.64638   0.16664   0.98098   0.124252  
         H         H         0.54028   0.17484   0.02222   0.119872  
         H         H         0.49858   0.09965   0.01267   0.104807  
         H         H         0.42171   0.76235   0.98902   0.101303  
         O         O         0.30532   0.72108   0.00816   -0.478269           
         H         H         0.34716   0.76776   0.00509   0.273534  
         C         C         0.98138   0.46299   0.54192   -0.127155           
         C         C         0.02529   0.48270   0.55070   -0.133510           
         C         C         0.04538   0.52285   0.51399   0.066923  
         C         C         0.90798   0.46100   0.48583   0.054179  
         C         C         0.11124   0.52040   0.51365   -0.118745           
         C         C         0.15449   0.53942   0.51787   -0.177982           
         C         C         0.18023   0.58293   0.52829   0.219919  
         C         C         0.16207   0.60691   0.53972   -0.190570           
         C         C         0.11889   0.58739   0.53697   -0.113303           
         N         N         0.77688   0.40224   0.47990   -0.231285           
         C         C         0.74930   0.36246   0.48296   0.116727  
         C         C         0.70864   0.34881   0.49374   -0.253639           
         C         C         0.69395   0.37760   0.50165   0.359365  
         H         H         0.96845   0.43272   0.57870   0.099731  
         H         H         0.04506   0.46695   0.59211   0.099532  
         H         H         0.09130   0.48642   0.49903   0.102847  
         H         H         0.16812   0.52054   0.50752   0.124636  
         H         H         0.18158   0.64080   0.55152   0.123210  
         H         H         0.10628   0.60695   0.54976   0.102795  
         H         H         0.75870   0.33964   0.47750   0.101504  
         O         O         0.71821   0.41630   0.50317   -0.479206           
         H         H         0.76402   0.42077   0.48863   0.272895  
         C         C         0.53273   0.51339   0.45046   -0.131717           
         C         C         0.51469   0.53767   0.45440   -0.135219           
         C         C         0.47907   0.52360   0.50053   0.053748  
         C         C         0.53672   0.44850   0.49521   0.048156  
         C         C         0.48361   0.59264   0.51173   -0.116780           
         C         C         0.46341   0.61583   0.50219   -0.181922           
         C         C         0.41763   0.59613   0.48181   0.206076  
         C         C         0.39243   0.55246   0.46932   -0.182901           
         C         C         0.41312   0.52970   0.47912   -0.112593           
         N         N         0.59695   0.37686   0.51808   -0.240931           
         C         C         0.63655   0.38859   0.51325   0.123207  
         C         C         0.65022   0.36068   0.50844   -0.243844           
         C         C         0.62173   0.31664   0.50838   0.357389  
         H         H         0.55858   0.52498   0.40555   0.096322  
         H         H         0.52715   0.56735   0.41260   0.101429  
         H         H         0.51934   0.60902   0.52934   0.108182  
         H         H         0.48309   0.64963   0.51147   0.126913  
         H         H         0.35700   0.53624   0.45403   0.122354  
         H         H         0.39262   0.49590   0.46760   0.107316  
         H         H         0.65876   0.42108   0.51088   0.101427  
         O         O         0.58341   0.30228   0.51172   -0.474932           
         H         H         0.57914   0.34470   0.51892   0.272356  
         C         C         0.47674   0.02127   0.46231   -0.131860           
         C         C         0.45355   0.97885   0.46433   -0.131339           
         C         C         0.47498   0.95544   0.48842   0.059125  
         C         C         0.54816   0.08849   0.48723   0.041254  
         C         C         0.40868   0.89063   0.50263   -0.119575           
         C         C         0.38480   0.84797   0.50024   -0.177523           
         C         C         0.40237   0.82329   0.49028   0.205090  
         C         C         0.44417   0.84245   0.48054   -0.191075           
         C         C         0.46723   0.88500   0.47998   -0.113441           
         N         N         0.62305   0.21931   0.50462   -0.228717           
         C         C         0.61144   0.24755   0.50830   0.117272  
         C         C         0.63868   0.28929   0.50515   -0.242391           
         C         C         0.68211   0.30477   0.49944   0.352256  
         H         H         0.45807   0.03745   0.44111   0.102959  
         H         H         0.41784   0.96370   0.44577   0.100991  
         H         H         0.39492   0.90892   0.51773   0.105087  
         H         H         0.35325   0.83366   0.51333   0.124403  
         H         H         0.45810   0.82405   0.46836   0.119218  
         H         H         0.49832   0.89820   0.46459   0.103897  
         H         H         0.57924   0.23779   0.51233   0.101465  
         O         O         0.69666   0.28061   0.49870   -0.480258           
         H         H         0.65494   0.23352   0.50142   0.272516  
         C         C         0.01853   0.54198   0.46750   -0.133454           
         C         C         0.97452   0.52222   0.45823   -0.132559           
         C         C         0.95452   0.48209   0.49493   0.062934  
         C         C         0.09184   0.54359   0.52200   0.050914  
         C         C         0.88898   0.48390   0.50144   -0.124583           
         C         C         0.84556   0.46404   0.49643   -0.176752           
         C         C         0.81931   0.42010   0.47679   0.216187  
         C         C         0.83701   0.39645   0.45699   -0.186202           
         C         C         0.88047   0.41683   0.46196   -0.113528           
         N         N         0.22241   0.60000   0.52392   -0.231956           
         C         C         0.25049   0.63958   0.52056   0.116893  
         C         C         0.29092   0.65250   0.50923   -0.251515           
         C         C         0.30443   0.62293   0.49903   0.356001  
         H         H         0.03146   0.57226   0.43094   0.099365  
         H         H         0.95448   0.53777   0.41576   0.096644  
         H         H         0.90920   0.51814   0.52229   0.103817  
         H         H         0.83191   0.48243   0.51183   0.124879  
         H         H         0.81671   0.36220   0.43584   0.123932  
         H         H         0.89296   0.39776   0.44266   0.102753  
         H         H         0.24190   0.66293   0.52754   0.101871  
         O         O         0.27893   0.58417   0.49400   -0.478438           
         H         H         0.23481   0.58106   0.51443   0.272863  
         C         C         0.46254   0.48371   0.54230   -0.134055           
         C         C         0.48080   0.45955   0.53949   -0.132876           
         C         C         0.51646   0.47362   0.49366   0.051349  
         C         C         0.45905   0.54884   0.50012   0.045948  
         C         C         0.51310   0.40497   0.48952   -0.119624           
         C         C         0.53364   0.38202   0.49997   -0.183079           
         C         C         0.57877   0.40167   0.51489   0.208492  
         C         C         0.60285   0.44502   0.52035   -0.184038           
         C         C         0.58200   0.46758   0.51065   -0.113022           
         N         N         0.40014   0.62143   0.48080   -0.239659           
         C         C         0.36082   0.61041   0.48650   0.124645  
         C         C         0.34823   0.63903   0.49374   -0.244035           
         C         C         0.37778   0.68303   0.49651   0.358630  
         H         H         0.43660   0.47208   0.58668   0.096263  
         H         H         0.46830   0.42988   0.58123   0.101465  
         H         H         0.47795   0.38857   0.47662   0.107676  
         H         H         0.51473   0.34846   0.49583   0.126973  
         H         H         0.63763   0.46118   0.53028   0.122115  
         H         H         0.60181   0.50113   0.51684   0.107316  
         H         H         0.33778   0.57801   0.48715   0.101730  
         O         O         0.41607   0.69668   0.49375   -0.476481           
         H         H         0.41877   0.65367   0.48221   0.271258  
         C         C         0.52095   0.97725   0.50862   -0.131101           
         C         C         0.54419   0.01967   0.50678   -0.130617           
         C         C         0.52296   0.04318   0.48456   0.060294  
         C         C         0.45053   0.91050   0.49180   0.042259  
         C         C         0.58929   0.10844   0.47168   -0.119105           
         C         C         0.61386   0.15146   0.48041   -0.180366           
         C         C         0.59783   0.17652   0.50233   0.206860  
         C         C         0.55680   0.15727   0.51722   -0.191120           
         C         C         0.53297   0.11435   0.51101   -0.112903           
         N         N         0.37788   0.78104   0.49575   -0.229637           
         C         C         0.38920   0.75251   0.49399   0.118961  
         C         C         0.36179   0.71112   0.50031   -0.242454           
         C         C         0.31853   0.69653   0.50597   0.350983  
         H         H         0.53955   0.96106   0.52914   0.102352  
         H         H         0.57989   0.03479   0.52521   0.101590  
         H         H         0.60165   0.08988   0.44606   0.104960  
         H         H         0.64494   0.16584   0.46431   0.123322  
         H         H         0.54405   0.17586   0.53880   0.118758  
         H         H         0.50276   0.10112   0.53195   0.102503  
         H         H         0.42087   0.76154   0.48725   0.101789  
         O         O         0.30487   0.72138   0.50759   -0.477496           
         H         H         0.34618   0.76730   0.50039   0.271773 

