
##########################################################################
#               Crystallographic Information Format file
#               Produced by PyCifRW module
#
#  This is a CIF file.  CIF has been adopted by the International
#  Union of Crystallography as the standard for data archiving and
#  transmission.
#
#  For information on this file format, follow the CIF links at
#  http://www.iucr.org
##########################################################################

data_image0

_cell_length_a                          37.4478
_cell_length_b                          37.2036
_cell_length_c                          8.09163
_cell_angle_alpha                       112.16
_cell_angle_beta                        64.3797
_cell_angle_gamma                       120.691
_symmetry_space_group_name_H-M          'P 1'
_space_group_name_Hall                  'P 1'
loop_
  _atom_site_type_symbol
  _atom_site_label
  _atom_site_fract_x
  _atom_site_fract_y
  _atom_site_fract_z
  _atom_site_charge
         C         C         0.28836   0.63943   0.29728   0.072851  
         C         C         0.31480   0.62152   0.28487   -0.177141           
         C         C         0.24255   0.61285   0.29686   0.059538  
         C         C         0.37542   0.58248   0.18909   -0.117647           
         C         C         0.40049   0.56374   0.17880   -0.171161           
         C         C         0.43832   0.58865   0.23632   0.207450  
         C         C         0.44997   0.63276   0.30282   -0.150224           
         C         C         0.42389   0.65094   0.31863   -0.125191           
         N         N         0.46559   0.57291   0.23154   -0.280149           
         C         C         0.44963   0.53392   0.24864   0.074153  
         C         C         0.47653   0.51662   0.25045   0.020739  
         C         C         0.45889   0.47473   0.28129   0.015872  
         C         C         0.48616   0.46080   0.28934   -0.163991           
         S         S         0.40267   0.44289   0.30930   0.035444  
         C         C         0.61103   0.59507   0.38306   -0.402422           
         H         H         0.30079   0.58770   0.28354   0.104082  
         H         H         0.34781   0.56297   0.13402   0.104451  
         H         H         0.39172   0.52985   0.11948   0.099961  
         H         H         0.47910   0.65179   0.34762   0.115424  
         H         H         0.43278   0.68478   0.37838   0.097381  
         H         H         0.41486   0.51289   0.26853   0.059691  
         H         H         0.47407   0.42962   0.31769   0.112651  
         H         H         0.58730   0.60909   0.44464   0.144583  
         H         H         0.64403   0.62069   0.35584   0.143600  
         H         H         0.60702   0.57769   0.47892   0.097664  
         C         C         0.35895   0.64607   0.27481   0.079075  
         C         C         0.37692   0.68975   0.27487   -0.183440           
         C         C         0.38600   0.62640   0.26203   0.060057  
         C         C         0.40997   0.77414   0.16174   -0.125248           
         C         C         0.42679   0.81695   0.15635   -0.173731           
         C         C         0.40437   0.84224   0.28478   0.202527  
         C         C         0.36437   0.82315   0.41523   -0.159321           
         C         C         0.34798   0.78047   0.42054   -0.125137           
         N         N         0.41948   0.88535   0.28560   -0.280399           
         C         C         0.46065   0.90928   0.25894   0.079999  
         C         C         0.47971   0.95419   0.25223   0.017828  
         C         C         0.52370   0.98112   0.25262   0.015281  
         C         C         0.53926   0.02450   0.26062   -0.171710           
         S         S         0.55566   0.95803   0.24450   0.030143  
         C         C         0.38535   0.00697   0.39127   -0.408383           
         H         H         0.41133   0.70920   0.26097   0.099567  
         H         H         0.42724   0.75485   0.05879   0.100273  
         H         H         0.45650   0.83082   0.04801   0.110713  
         H         H         0.34733   0.84288   0.51494   0.116172  
         H         H         0.31792   0.76664   0.52747   0.105162  
         H         H         0.48275   0.89673   0.24772   0.064552  
         H         H         0.57183   0.04685   0.26942   0.114766  
         H         H         0.37178   0.97270   0.33183   0.143098  
         H         H         0.36400   0.02038   0.40292   0.149170  
         H         H         0.38747   0.01217   0.52994   0.136625  
         C         C         0.35126   0.70900   0.29297   0.078530  
         C         C         0.30709   0.68368   0.30675   -0.185420           
         C         C         0.37020   0.75496   0.29300   0.057267  
         C         C         0.21981   0.62902   0.26467   -0.124328           
         C         C         0.17670   0.60538   0.26638   -0.166036           
         C         C         0.15372   0.56339   0.29835   0.198236  
         C         C         0.17627   0.54675   0.32840   -0.149961           
         C         C         0.21947   0.57083   0.32811   -0.128909           
         N         N         0.11055   0.53627   0.29796   -0.297763           
         C         C         0.08801   0.54981   0.27169   0.065374  
         C         C         0.04311   0.52334   0.27161   0.025621  
         C         C         0.01887   0.54003   0.25050   0.006347  
         C         C         0.97571   0.51361   0.25341   -0.161373           
         S         S         0.04483   0.59333   0.22132   0.054674  
         C         C         0.99682   0.39407   0.33688   -0.412375           
         H         H         0.28765   0.69894   0.31897   0.101655  
         H         H         0.23669   0.66039   0.23023   0.103501  
         H         H         0.16153   0.61936   0.23515   0.110890  
         H         H         0.15866   0.51460   0.35560   0.118056  
         H         H         0.23477   0.55694   0.35902   0.106895  
         H         H         0.10135   0.58220   0.24980   0.058179  
         H         H         0.95568   0.52428   0.23585   0.117628  
         H         H         0.02405   0.39858   0.20697   0.146344  
         H         H         0.98224   0.36101   0.35319   0.152717  
         H         H         0.00804   0.41561   0.45835   0.135089  
         C         C         0.71332   0.35882   0.24025   0.077048  
         C         C         0.68860   0.37771   0.24557   -0.182000           
         C         C         0.75879   0.38503   0.24351   0.060186  
         C         C         0.63875   0.41168   0.19010   -0.125229           
         C         C         0.61485   0.43185   0.20202   -0.169676           
         C         C         0.56939   0.41559   0.28799   0.199276  
         C         C         0.54935   0.37872   0.36166   -0.146307           
         C         C         0.57356   0.35888   0.35017   -0.125474           
         N         N         0.54226   0.43168   0.29326   -0.282741           
         C         C         0.55806   0.47040   0.27276   0.075332  
         C         C         0.53107   0.48649   0.26175   0.046377  
         C         C         0.54894   0.52753   0.22291   0.010909  
         C         C         0.52119   0.54187   0.22300   -0.136908           
         S         S         0.60602   0.56048   0.15800   -0.032686           
         C         C         0.39587   0.39243   0.32290   -0.409925           
         H         H         0.70404   0.41160   0.24559   0.099042  
         H         H         0.67344   0.42393   0.11641   0.095619  
         H         H         0.63104   0.45908   0.13581   0.114336  
         H         H         0.51446   0.36669   0.43114   0.114048  
         H         H         0.55734   0.33141   0.41494   0.107105  
         H         H         0.59209   0.49308   0.26205   0.055310  
         H         H         0.53380   0.57354   0.19835   0.108159  
         H         H         0.41780   0.38029   0.19960   0.152515  
         H         H         0.36195   0.37076   0.32701   0.152301  
         H         H         0.40088   0.39553   0.45283   0.119714  
         C         C         0.64466   0.35383   0.25192   0.080330  
         C         C         0.62587   0.31020   0.25358   -0.178663           
         C         C         0.61885   0.37461   0.26251   0.062130  
         C         C         0.58728   0.21739   0.22929   -0.120035           
         C         C         0.56791   0.17401   0.22720   -0.174482           
         C         C         0.58956   0.15477   0.24690   0.198329  
         C         C         0.63131   0.18105   0.26893   -0.148102           
         C         C         0.65015   0.22465   0.27433   -0.127896           
         N         N         0.57306   0.11110   0.23942   -0.283920           
         C         C         0.53145   0.08792   0.27785   0.069010  
         C         C         0.51337   0.04210   0.26415   0.029926  
         C         C         0.47020   0.01486   0.25516   -0.001692           
         C         C         0.45439   0.97156   0.25007   -0.147176           
         S         S         0.43842   0.03550   0.24038   0.026248  
         C         C         0.60232   0.00396   0.30406   -0.407671           
         H         H         0.59188   0.29177   0.25847   0.101351  
         H         H         0.57040   0.23051   0.20421   0.103498  
         H         H         0.53656   0.15435   0.20079   0.112699  
         H         H         0.64796   0.16661   0.28736   0.117215  
         H         H         0.68178   0.24382   0.29830   0.107206  
         H         H         0.50754   0.10121   0.32434   0.054530  
         H         H         0.42169   0.94945   0.24224   0.114377  
         H         H         0.62405   0.02157   0.19039   0.140752  
         H         H         0.61939   0.99088   0.33045   0.148909  
         H         H         0.59164   0.02502   0.43276   0.148878  
         C         C         0.64961   0.29008   0.24854   0.074150  
         C         C         0.69369   0.31509   0.23994   -0.185332           
         C         C         0.62892   0.24412   0.25306   0.056658  
         C         C         0.79135   0.36985   0.13668   -0.121986           
         C         C         0.83384   0.39428   0.14570   -0.179627           
         C         C         0.84526   0.43521   0.26167   0.211963  
         C         C         0.81313   0.45113   0.36349   -0.155236           
         C         C         0.77068   0.42623   0.35607   -0.128067           
         N         N         0.88733   0.46180   0.27543   -0.281843           
         C         C         0.91059   0.44545   0.27554   0.065038  
         C         C         0.95558   0.47134   0.27718   0.022429  
         C         C         0.97973   0.45472   0.29892   0.007282  
         C         C         0.02294   0.48108   0.29588   -0.163041           
         S         S         0.95356   0.40138   0.32891   0.038507  
         C         C         0.00132   0.60052   0.21552   -0.415064           
         H         H         0.71308   0.30103   0.23880   0.101473  
         H         H         0.78338   0.33893   0.04166   0.105127  
         H         H         0.85884   0.38242   0.05885   0.098718  
         H         H         0.82199   0.48277   0.45233   0.117554  
         H         H         0.74598   0.43858   0.44039   0.100202  
         H         H         0.89712   0.41149   0.27650   0.057881  
         H         H         0.04285   0.47030   0.31364   0.116465  
         H         H         0.97388   0.59492   0.34424   0.147114  
         H         H         0.99052   0.57977   0.09219   0.137248  
         H         H         0.01546   0.63396   0.20525   0.152964  
         C         C         0.28813   0.64195   0.79821   0.074644  
         C         C         0.31378   0.62311   0.78564   -0.180355           
         C         C         0.24230   0.61614   0.79758   0.055472  
         C         C         0.37361   0.58269   0.69144   -0.118300           
         C         C         0.39872   0.56382   0.67983   -0.173524           
         C         C         0.43675   0.58852   0.73624   0.210028  
         C         C         0.44844   0.63265   0.80327   -0.152754           
         C         C         0.42249   0.65099   0.81928   -0.125198           
         N         N         0.46404   0.57271   0.73164   -0.280086           
         C         C         0.44793   0.53365   0.74803   0.070656  
         C         C         0.47366   0.51551   0.75430   0.025945  
         C         C         0.45452   0.47252   0.77553   0.006552  
         C         C         0.48009   0.45687   0.78581   -0.160767           
         S         S         0.39888   0.44096   0.78776   0.031976  
         C         C         0.59944   0.60978   0.86091   -0.409776           
         H         H         0.29910   0.58918   0.78356   0.103543  
         H         H         0.34567   0.56327   0.63846   0.105262  
         H         H         0.38959   0.52988   0.62091   0.100179  
         H         H         0.47747   0.65159   0.84875   0.116182  
         H         H         0.43149   0.68485   0.87846   0.097804  
         H         H         0.41322   0.51268   0.76536   0.056706  
         H         H         0.46707   0.42453   0.80364   0.112959  
         H         H         0.59915   0.62456   0.76754   0.142189  
         H         H         0.62986   0.62869   0.89825   0.150376  
         H         H         0.57187   0.60806   0.98899   0.150580  
         C         C         0.35797   0.64684   0.77598   0.081654  
         C         C         0.37676   0.69055   0.77559   -0.184411           
         C         C         0.38451   0.62666   0.76345   0.060856  
         C         C         0.41317   0.77448   0.65963   -0.126596           
         C         C         0.43223   0.81750   0.65305   -0.175911           
         C         C         0.41092   0.84406   0.77715   0.201085  
         C         C         0.36995   0.82607   0.90539   -0.155941           
         C         C         0.35144   0.78322   0.91246   -0.127726           
         N         N         0.42791   0.88736   0.77649   -0.275674           
         C         C         0.46916   0.91046   0.75268   0.079140  
         C         C         0.48883   0.95570   0.74965   0.018986  
         C         C         0.53263   0.98255   0.75183   0.006744  
         C         C         0.54765   0.02627   0.76835   -0.164425           
         S         S         0.56592   0.95923   0.72863   0.018349  
         C         C         0.39245   0.99614   0.82555   -0.408132           
         H         H         0.41121   0.70943   0.76200   0.098252  
         H         H         0.42947   0.75410   0.55970   0.099417  
         H         H         0.46302   0.83061   0.54779   0.111563  
         H         H         0.35394   0.84680   0.00323   0.116862  
         H         H         0.32065   0.77013   0.01782   0.106369  
         H         H         0.49045   0.89715   0.74298   0.063416  
         H         H         0.58020   0.04851   0.77778   0.116037  
         H         H         0.38766   0.96813   0.71044   0.147724  
         H         H         0.36931   0.00919   0.85547   0.147355  
         H         H         0.38734   0.98733   0.95164   0.141024  
         C         C         0.35202   0.71061   0.79214   0.074435  
         C         C         0.30773   0.68621   0.80680   -0.182798           
         C         C         0.37248   0.75647   0.78885   0.060711  
         C         C         0.22060   0.63264   0.76021   -0.123391           
         C         C         0.17754   0.60941   0.76009   -0.168993           
         C         C         0.15377   0.56761   0.79518   0.197373  
         C         C         0.17535   0.55072   0.83045   -0.150592           
         C         C         0.21839   0.57443   0.83277   -0.125697           
         N         N         0.11087   0.54058   0.79091   -0.302849           
         C         C         0.08740   0.55495   0.77704   0.065126  
         C         C         0.04282   0.52781   0.77143   0.027861  
         C         C         0.01826   0.54352   0.74629   0.008922  
         C         C         0.97519   0.51651   0.74865   -0.163320           
         S         S         0.04353   0.59634   0.71154   0.044023  
         C         C         0.99871   0.39888   0.83258   -0.413366           
         H         H         0.28892   0.70220   0.81934   0.101380  
         H         H         0.23847   0.66379   0.72280   0.102494  
         H         H         0.16309   0.62323   0.72349   0.110608  
         H         H         0.15695   0.51873   0.85989   0.117712  
         H         H         0.23307   0.56058   0.86785   0.104654  
         H         H         0.09946   0.58841   0.77161   0.056753  
         H         H         0.95511   0.52666   0.72839   0.116051  
         H         H         0.02520   0.40354   0.70043   0.146400  
         H         H         0.98486   0.36594   0.84862   0.151634  
         H         H         0.01084   0.42063   0.95161   0.136911  
         C         C         0.71249   0.36118   0.73929   0.074195  
         C         C         0.68624   0.37872   0.74752   -0.184673           
         C         C         0.75792   0.38814   0.74342   0.059742  
         C         C         0.63278   0.40916   0.69513   -0.122861           
         C         C         0.60719   0.42749   0.70698   -0.168430           
         C         C         0.56185   0.41000   0.79498   0.199714  
         C         C         0.54349   0.37369   0.87021   -0.152363           
         C         C         0.56941   0.35577   0.85923   -0.124002           
         N         N         0.53396   0.42495   0.79819   -0.283000           
         C         C         0.54906   0.46478   0.79483   0.072490  
         C         C         0.52402   0.48231   0.77859   0.037809  
         C         C         0.54309   0.52530   0.75852   0.004559  
         C         C         0.51760   0.54086   0.74640   -0.142028           
         S         S         0.59868   0.55719   0.74698   0.045458  
         C         C         0.38780   0.39366   0.84919   -0.407541           
         H         H         0.70037   0.41261   0.74945   0.099865  
         H         H         0.66732   0.42220   0.61925   0.098158  
         H         H         0.62183   0.45397   0.63787   0.110733  
         H         H         0.50866   0.36054   0.94085   0.113367  
         H         H         0.55463   0.32881   0.92557   0.103144  
         H         H         0.58179   0.48756   0.80569   0.058775  
         H         H         0.53064   0.57356   0.73264   0.117675  
         H         H         0.40649   0.37606   0.73851   0.145606  
         H         H         0.35296   0.37366   0.86713   0.152079  
         H         H         0.39437   0.40228   0.98254   0.115203  
         C         C         0.64220   0.35357   0.75606   0.083366  
         C         C         0.62485   0.31005   0.75658   -0.180255           
         C         C         0.61465   0.37277   0.76961   0.059611  
         C         C         0.59121   0.21645   0.71482   -0.121498           
         C         C         0.57361   0.17337   0.71606   -0.176564           
         C         C         0.59556   0.15691   0.75176   0.199822  
         C         C         0.63598   0.18542   0.78436   -0.154406           
         C         C         0.65283   0.22864   0.78729   -0.130802           
         N         N         0.58049   0.11365   0.74787   -0.281619           
         C         C         0.53902   0.08990   0.79143   0.074424  
         C         C         0.52154   0.04410   0.77626   0.023882  
         C         C         0.47846   0.01686   0.76522   0.002185  
         C         C         0.46313   0.97339   0.75367   -0.162546           
         S         S         0.44628   0.03862   0.76381   0.025299  
         C         C         0.61015   0.00450   0.80962   -0.409474           
         H         H         0.59070   0.29060   0.76531   0.102480  
         H         H         0.57444   0.22731   0.67591   0.103238  
         H         H         0.54380   0.15167   0.67803   0.109994  
         H         H         0.65304   0.17317   0.81381   0.116679  
         H         H         0.68309   0.24980   0.82203   0.107186  
         H         H         0.51485   0.10313   0.84195   0.058602  
         H         H         0.43042   0.95113   0.74711   0.114181  
         H         H         0.63164   0.02619   0.71107   0.144199  
         H         H         0.62848   0.99075   0.82243   0.151473  
         H         H         0.59724   0.02187   0.94742   0.144759  
         C         C         0.65022   0.29123   0.74710   0.074702  
         C         C         0.69427   0.31740   0.73612   -0.183664           
         C         C         0.63120   0.24548   0.75172   0.054749  
         C         C         0.79069   0.37320   0.63714   -0.119098           
         C         C         0.83297   0.39738   0.64874   -0.175656           
         C         C         0.84424   0.43808   0.76631   0.210440  
         C         C         0.81201   0.45391   0.86762   -0.155296           
         C         C         0.76968   0.42918   0.85779   -0.132554           
         N         N         0.88635   0.46459   0.77979   -0.278522           
         C         C         0.91000   0.44835   0.77734   0.068041  
         C         C         0.95527   0.47452   0.77553   0.024646  
         C         C         0.97989   0.45862   0.79848   0.006364  
         C         C         0.02294   0.48562   0.79658   -0.161875           
         S         S         0.95434   0.40567   0.83256   0.049840  
         C         C         0.99830   0.60362   0.72342   -0.415458           
         H         H         0.71470   0.30406   0.73128   0.101761  
         H         H         0.78294   0.34247   0.54082   0.104979  
         H         H         0.85803   0.38557   0.56291   0.097859  
         H         H         0.82089   0.48541   0.95764   0.116627  
         H         H         0.74506   0.44165   0.94194   0.102101  
         H         H         0.89682   0.41439   0.77801   0.057914  
         H         H         0.04296   0.47560   0.81796   0.116255  
         H         H         0.98598   0.58337   0.60338   0.137957  
         H         H         0.01159   0.63723   0.71755   0.152949  
         H         H         0.97208   0.59732   0.85520   0.149949 

