
##########################################################################
#               Crystallographic Information Format file
#               Produced by PyCifRW module
#
#  This is a CIF file.  CIF has been adopted by the International
#  Union of Crystallography as the standard for data archiving and
#  transmission.
#
#  For information on this file format, follow the CIF links at
#  http://www.iucr.org
##########################################################################

data_image0

_cell_length_a                          34.3946
_cell_length_b                          33.6603
_cell_length_c                          8.36407
_cell_angle_alpha                       84.5163
_cell_angle_beta                        110.069
_cell_angle_gamma                       119.282
_symmetry_space_group_name_H-M          'P 1'
_space_group_name_Hall                  'P 1'
loop_
  _atom_site_type_symbol
  _atom_site_label
  _atom_site_fract_x
  _atom_site_fract_y
  _atom_site_fract_z
  _atom_site_charge
         H         H         0.26533   0.79662   0.31280   0.094305  
         H         H         0.35069   0.84814   0.35946   0.124320  
         H         H         0.34712   0.95144   0.60915   0.103857  
         H         H         0.26177   0.89824   0.57104   0.116984  
         H         H         0.14752   0.68444   0.23075   0.122768  
         H         H         0.18121   0.63330   0.24690   0.113712  
         H         H         0.30583   0.72371   0.65584   0.121562  
         H         H         0.27381   0.77651   0.63101   0.107353  
         H         H         0.93928   0.60283   0.57940   0.100852  
         H         H         0.91074   0.51956   0.58670   0.121117  
         H         H         0.01461   0.53370   0.37780   0.109037  
         H         H         0.04061   0.61614   0.35969   0.114826  
         H         H         0.93760   0.72344   0.53090   0.117142  
         H         H         0.85421   0.69257   0.50354   0.112327  
         H         H         0.81749   0.57023   0.23030   0.124440  
         H         H         0.90150   0.60124   0.25937   0.105196  
         H         H         0.07734   0.95547   0.40904   0.104803  
         H         H         0.02696   0.98755   0.41710   0.122085  
         H         H         0.94769   0.86941   0.64813   0.112296  
         H         H         0.99809   0.83712   0.63949   0.120565  
         H         H         0.20901   0.94515   0.54731   0.113759  
         H         H         0.26630   0.02708   0.61678   0.109615  
         H         H         0.17127   0.04487   0.79108   0.120789  
         H         H         0.11529   0.96179   0.73190   0.100946  
         H         H         0.89276   0.89523   0.47652   0.069317  
         H         H         0.29156   0.09497   0.58766   0.065876  
         H         H         0.40264   0.98986   0.44199   0.064444  
         H         H         0.20851   0.58579   0.36599   0.062397  
         H         H         0.96832   0.46116   0.32046   0.068996  
         H         H         0.78787   0.65482   0.50985   0.061600  
         H         H         0.48631   0.94530   0.66921   0.112902  
         H         H         0.57182   0.98374   0.69929   0.101621  
         H         H         0.55845   0.09310   0.42136   0.107449  
         H         H         0.47335   0.05532   0.39605   0.102426  
         H         H         0.36004   0.16340   0.57899   0.102457  
         H         H         0.40227   0.24683   0.57128   0.105600  
         H         H         0.30030   0.25679   0.73022   0.108317  
         H         H         0.25816   0.17278   0.73639   0.114706  
         H         H         0.61216   0.99502   0.50544   0.104407  
         H         H         0.69097   0.02531   0.49324   0.108522  
         H         H         0.72155   0.16123   0.61405   0.111153  
         H         H         0.64161   0.13058   0.61991   0.105865  
         H         H         0.44546   0.31596   0.64881   0.104298  
         H         H         0.48072   0.39537   0.59311   0.114190  
         H         H         0.35451   0.39725   0.56525   0.105921  
         H         H         0.31914   0.31775   0.62037   0.105127  
         H         H         0.85290   0.16048   0.56901   0.104861  
         H         H         0.89775   0.23871   0.50497   0.102552  
         H         H         0.77076   0.24927   0.31582   0.104755  
         H         H         0.72571   0.17148   0.38108   0.115271  
         H         H         0.72829   0.04269   0.32692   0.111781  
         H         H         0.76321   0.99263   0.35368   0.106480  
         H         H         0.87347   0.07291   0.81596   0.109370  
         H         H         0.83535   0.12011   0.79577   0.119608  
         H         H         0.47753   0.41844   0.36762   0.107763  
         H         H         0.55524   0.45938   0.34394   0.103276  
         H         H         0.57554   0.58302   0.55120   0.103940  
         H         H         0.49930   0.54144   0.58528   0.111487  
         H         H         0.45902   0.51699   0.73879   0.112363  
         H         H         0.41195   0.55416   0.71870   0.108708  
         H         H         0.30487   0.46467   0.26974   0.108447  
         H         H         0.35397   0.42878   0.28797   0.114738  
         H         H         0.38710   0.59966   0.61065   0.105065  
         H         H         0.34079   0.63945   0.58214   0.114021  
         H         H         0.21303   0.51867   0.31303   0.103953  
         H         H         0.25856   0.47820   0.34233   0.104359  
         H         H         0.91946   0.30005   0.32201   0.104209  
         H         H         0.96388   0.38356   0.31294   0.104329  
         H         H         0.86495   0.39953   0.46692   0.111627  
         H         H         0.81941   0.31535   0.47325   0.104384  
         H         H         0.78077   0.94069   0.45669   0.104967  
         H         H         0.82119   0.89951   0.42930   0.105890  
         H         H         0.95645   0.01548   0.68250   0.116760  
         H         H         0.91616   0.05733   0.71270   0.108278  
         H         H         0.61483   0.49567   0.29304   0.101963  
         H         H         0.69605   0.53658   0.28503   0.108511  
         H         H         0.72562   0.65222   0.57795   0.102801  
         H         H         0.64523   0.61205   0.58939   0.099399  
         C         C         0.06884   0.73384   0.42869   0.098250  
         C         C         0.11688   0.76007   0.42374   0.084843  
         C         C         0.14082   0.80837   0.44976   0.097313  
         C         C         0.11769   0.83150   0.48378   0.096220  
         C         C         0.06995   0.80630   0.47767   0.094763  
         C         C         0.04500   0.75661   0.44853   0.094482  
         C         C         0.12259   0.89875   0.56080   0.125350  
         C         C         0.07204   0.87405   0.52950   0.130991  
         C         C         0.97765   0.68647   0.42560   0.127017  
         C         C         0.00485   0.66381   0.43533   0.129729  
         C         C         0.18536   0.76267   0.42227   0.127489  
         C         C         0.20858   0.81211   0.43556   0.127949  
         C         C         0.04208   0.89425   0.52767   0.025955  
         C         C         0.15635   0.94754   0.62295   0.034217  
         C         C         0.92640   0.66466   0.40141   0.027075  
         C         C         0.98959   0.61491   0.45684   0.029191  
         C         C         0.25778   0.84340   0.44209   0.027062  
         C         C         0.20770   0.73389   0.43093   0.036790  
         C         C         0.28312   0.83023   0.37907   -0.115580           
         C         C         0.33082   0.85883   0.40445   -0.162193           
         C         C         0.35448   0.90305   0.48696   0.212982  
         C         C         0.32876   0.91768   0.54183   -0.189534           
         C         C         0.28133   0.88811   0.52152   -0.086714           
         C         C         0.18196   0.69263   0.32548   -0.098573           
         C         C         0.20067   0.66352   0.33689   -0.172932           
         C         C         0.24561   0.67429   0.45765   0.197690  
         C         C         0.27119   0.71549   0.56312   -0.149217           
         C         C         0.25269   0.74466   0.54989   -0.118588           
         C         C         0.95440   0.58754   0.52821   -0.110285           
         C         C         0.93863   0.54097   0.53442   -0.156777           
         C         C         0.95838   0.52008   0.47404   0.201932  
         C         C         0.99708   0.54829   0.41837   -0.172447           
         C         C         0.01199   0.59465   0.40848   -0.095851           
         C         C         0.91106   0.68986   0.46466   -0.101166           
         C         C         0.86383   0.67226   0.44775   -0.175762           
         C         C         0.82929   0.62811   0.36617   0.202949  
         C         C         0.84430   0.60370   0.29707   -0.151711           
         C         C         0.89163   0.62145   0.31391   -0.115085           
         C         C         0.04912   0.93641   0.46183   -0.109302           
         C         C         0.02110   0.95477   0.46644   -0.159685           
         C         C         0.98373   0.93079   0.53153   0.198912  
         C         C         0.97501   0.88754   0.59025   -0.177474           
         C         C         0.00383   0.86971   0.58806   -0.099066           
         C         C         0.20100   0.96726   0.60107   -0.093149           
         C         C         0.23296   0.01357   0.63968   -0.178826           
         C         C         0.22125   0.04292   0.69826   0.204002  
         C         C         0.17894   0.02272   0.73569   -0.154757           
         C         C         0.14740   0.97599   0.70053   -0.116630           
         C         C         0.91531   0.93160   0.52419   0.067902  
         C         C         0.28087   0.11258   0.65387   0.067562  
         C         C         0.42306   0.97174   0.49414   0.067855  
         C         C         0.24734   0.60627   0.42412   0.065576  
         C         C         0.94414   0.44728   0.39423   0.074336  
         C         C         0.76545   0.62179   0.43216   0.072849  
         C         C         0.30613   0.16223   0.65871   0.048570  
         C         C         0.47409   0.99719   0.52737   0.047765  
         C         C         0.50262   0.97761   0.61535   -0.094349           
         C         C         0.54996   0.99889   0.63002   -0.138004           
         C         C         0.57076   0.04052   0.55828   0.071851  
         C         C         0.54284   0.06120   0.47850   -0.142122           
         C         C         0.49514   0.03986   0.46355   -0.132425           
         C         C         0.34754   0.18408   0.61540   -0.123172           
         C         C         0.37154   0.23130   0.61225   -0.143408           
         C         C         0.35475   0.25883   0.64935   0.068445  
         C         C         0.31344   0.23664   0.69479   -0.142893           
         C         C         0.28972   0.18956   0.69999   -0.095826           
         C         C         0.37786   0.30830   0.63065   0.037082  
         C         C         0.61957   0.06016   0.55905   0.047275  
         C         C         0.63592   0.03178   0.52815   -0.119037           
         C         C         0.68094   0.04927   0.51874   -0.190694           
         C         C         0.71285   0.09669   0.54242   0.184934  
         C         C         0.69721   0.12500   0.58153   -0.182925           
         C         C         0.65174   0.10731   0.58690   -0.123456           
         C         C         0.42416   0.33282   0.62465   -0.118890           
         C         C         0.44438   0.37842   0.58999   -0.185966           
         C         C         0.41916   0.40286   0.55698   0.192898  
         C         C         0.37434   0.37950   0.57741   -0.202587           
         C         C         0.35447   0.33389   0.61184   -0.109872           
         C         C         0.48249   0.47489   0.49188   0.181530  
         C         C         0.41062   0.47131   0.51097   0.164138  
         C         C         0.77934   0.08485   0.55869   0.163328  
         C         C         0.78560   0.15987   0.49311   0.188740  
         C         C         0.83434   0.17971   0.51727   -0.198944           
         C         C         0.85993   0.22439   0.47871   -0.117035           
         C         C         0.83878   0.25190   0.41426   0.044062  
         C         C         0.78950   0.23062   0.37772   -0.116268           
         C         C         0.76367   0.18624   0.41525   -0.189147           
         C         C         0.75880   0.04786   0.43821   -0.159120           
         C         C         0.77877   0.01973   0.45397   -0.125120           
         C         C         0.82148   0.02893   0.58588   0.050985  
         C         C         0.84164   0.06595   0.70770   -0.130125           
         C         C         0.82042   0.09287   0.69671   -0.150542           
         C         C         0.49984   0.45395   0.41815   -0.188948           
         C         C         0.54451   0.47804   0.40252   -0.116692           
         C         C         0.57463   0.52505   0.45397   0.046238  
         C         C         0.55540   0.54644   0.51501   -0.116786           
         C         C         0.51104   0.52251   0.53416   -0.185424           
         C         C         0.42627   0.50668   0.63165   -0.164687           
         C         C         0.39919   0.52763   0.61984   -0.123571           
         C         C         0.35471   0.51304   0.49063   0.051672  
         C         C         0.33857   0.47626   0.37377   -0.126681           
         C         C         0.36622   0.45617   0.38232   -0.152162           
         C         C         0.32650   0.53581   0.47762   0.062140  
         C         C         0.62267   0.55016   0.44210   0.067802  
         C         C         0.86588   0.30119   0.39817   0.065725  
         C         C         0.84528   0.00256   0.58423   0.068369  
         C         C         0.34890   0.58152   0.54595   -0.130271           
         C         C         0.32348   0.60426   0.52923   -0.094903           
         C         C         0.27412   0.58222   0.44303   0.059393  
         C         C         0.25133   0.53645   0.37710   -0.124645           
         C         C         0.27702   0.51370   0.39362   -0.137449           
         C         C         0.90738   0.32152   0.35531   -0.143053           
         C         C         0.93251   0.36880   0.35020   -0.127494           
         C         C         0.91777   0.39751   0.39256   0.049971  
         C         C         0.87600   0.37717   0.43350   -0.104646           
         C         C         0.85061   0.33019   0.43515   -0.133581           
         C         C         0.81929   0.95760   0.50605   -0.137232           
         C         C         0.84201   0.93414   0.49147   -0.129391           
         C         C         0.89176   0.95513   0.55208   0.051052  
         C         C         0.91797   -0.00043  0.63486   -0.101324           
         C         C         0.89517   0.02263   0.65149   -0.134031           
         C         C         0.63873   0.52991   0.35731   -0.134094           
         C         C         0.68440   0.55265   0.35136   -0.095795           
         C         C         0.71675   0.59734   0.43021   0.050885  
         C         C         0.70101   0.61803   0.51329   -0.128218           
         C         C         0.65519   0.59515   0.51891   -0.138481           
         N         N         0.14287   0.87645   0.52929   -0.249203           
         N         N         0.04794   0.82845   0.49631   -0.268815           
         N         N         -0.00046  0.73232   0.43957   -0.262510           
         N         N         0.04863   0.68822   0.42744   -0.254911           
         N         N         0.13970   0.73823   0.40997   -0.263692           
         N         N         0.18541   0.83325   0.45009   -0.255372           
         N         N         0.96014   0.95330   0.54810   -0.277171           
         N         N         0.24725   0.09093   0.71802   -0.309058           
         N         N         0.40296   0.92880   0.51702   -0.273606           
         N         N         0.26905   0.64905   0.47666   -0.284186           
         N         N         0.93699   0.47245   0.47632   -0.309992           
         N         N         0.78139   0.60505   0.35258   -0.309226           
         N         N         0.43807   0.44923   0.51863   -0.132202           
         N         N         0.75947   0.11485   0.53721   -0.135109           
         H         H         0.25322   0.79062   0.79935   0.093122  
         H         H         0.33889   0.84074   0.84700   0.122178  
         H         H         0.33843   0.94466   0.10633   0.107386  
         H         H         0.25268   0.89319   0.06409   0.115607  
         H         H         0.13695   0.68347   0.68794   0.120503  
         H         H         0.16997   0.63192   0.70224   0.108970  
         H         H         0.28778   0.71313   0.14775   0.122132  
         H         H         0.25691   0.76716   0.12345   0.101872  
         H         H         0.91918   0.59941   0.04587   0.098078  
         H         H         0.89212   0.51666   0.06237   0.122207  
         H         H         0.00706   0.53288   0.91732   0.113113  
         H         H         0.03386   0.61566   0.89920   0.117929  
         H         H         0.93148   0.72137   0.06724   0.118247  
         H         H         0.84939   0.68996   0.05734   0.107439  
         H         H         0.80571   0.57691   0.71247   0.123795  
         H         H         0.88860   0.60869   0.72385   0.108924  
         H         H         0.07342   0.95562   0.91351   0.105928  
         H         H         0.02490   0.98977   0.92524   0.121948  
         H         H         0.94113   0.87048   0.14026   0.113107  
         H         H         0.99094   0.83701   0.13369   0.122129  
         H         H         0.20279   0.94241   0.05013   0.114847  
         H         H         0.26084   0.02453   0.11880   0.109828  
         H         H         0.16693   0.04389   0.29372   0.120806  
         H         H         0.11025   0.96096   0.23515   0.096824  
         H         H         0.88884   0.89921   0.94110   0.068026  
         H         H         0.28362   0.09245   0.07636   0.064844  
         H         H         0.39465   0.98196   0.93512   0.062120  
         H         H         0.19953   0.58812   0.76639   0.063089  
         H         H         0.95394   0.46036   0.81672   0.070669  
         H         H         0.77646   0.66078   -0.00306  0.059953  
         H         H         0.47734   0.93550   0.16060   0.114612  
         H         H         0.56350   0.97530   0.19919   0.102450  
         H         H         0.55003   0.08488   0.92274   0.106479  
         H         H         0.46481   0.04640   0.89369   0.100694  
         H         H         0.35065   0.16153   0.05275   0.102956  
         H         H         0.39111   0.24479   0.04301   0.102694  
         H         H         0.29778   0.25414   0.25619   0.104362  
         H         H         0.25680   0.16978   0.26285   0.111303  
         H         H         0.60901   0.98976   0.03154   0.104102  
         H         H         0.68813   0.02304   0.01536   0.112008  
         H         H         0.71091   0.15727   0.11220   0.112812  
         H         H         0.63060   0.12366   0.11928   0.105880  
         H         H         0.43724   0.31392   0.14469   0.105353  
         H         H         0.47209   0.39353   0.09198   0.115718  
         H         H         0.34423   0.39327   0.05973   0.106536  
         H         H         0.31033   0.31385   0.11910   0.105077  
         H         H         0.84449   0.16095   0.07056   0.105638  
         H         H         0.88803   0.23965   0.00916   0.103605  
         H         H         0.75954   0.24786   0.82855   0.105932  
         H         H         0.71557   0.16907   0.88493   0.110779  
         H         H         0.72074   0.04386   0.81364   0.111620  
         H         H         0.75538   0.99449   0.82688   0.103764  
         H         H         0.86457   0.06942   0.30045   0.105871  
         H         H         0.82827   0.11732   0.28845   0.116257  
         H         H         0.46881   0.41842   0.86631   0.107120  
         H         H         0.54512   0.46158   0.83098   0.099498  
         H         H         0.56944   0.58041   0.09072   0.103845  
         H         H         0.49327   0.53765   0.12235   0.109244  
         H         H         0.44730   0.51613   0.22819   0.109847  
         H         H         0.40081   0.55457   0.18554   0.107205  
         H         H         0.29487   0.45856   0.74990   0.104440  
         H         H         0.34524   0.42461   0.78107   0.117573  
         H         H         0.36110   0.58035   0.17055   0.101699  
         H         H         0.31460   0.61954   0.12894   0.110638  
         H         H         0.20940   0.52671   0.68789   0.101088  
         H         H         0.25551   0.48750   0.72564   0.101118  
         H         H         0.90612   0.29910   0.81830   0.106369  
         H         H         0.95030   0.38295   0.80758   0.110300  
         H         H         0.85328   0.39858   0.97560   0.111158  
         H         H         0.80816   0.31431   0.98320   0.102669  
         H         H         0.77571   0.94603   0.88179   0.105083  
         H         H         0.81817   0.90705   0.85690   0.104776  
         H         H         0.94661   0.00845   0.22030   0.114980  
         H         H         0.90493   0.04844   0.24613   0.105247  
         H         H         0.61248   0.49258   0.85308   0.104271  
         H         H         0.69392   0.53497   0.84794   0.114565  
         H         H         0.71026   0.65810   0.03924   0.102091  
         H         H         0.62839   0.61706   0.03724   0.105451  
         C         C         0.05843   0.73131   0.92738   0.097121  
         C         C         0.10623   0.75656   0.91933   0.090400  
         C         C         0.13144   0.80489   0.94861   0.093249  
         C         C         0.10973   0.82913   0.98580   0.094386  
         C         C         0.06202   0.80493   0.97941   0.091490  
         C         C         0.03599   0.75534   0.94932   0.095812  
         C         C         0.11640   0.89716   0.06388   0.126435  
         C         C         0.06585   0.87344   0.03194   0.128631  
         C         C         0.96738   0.68659   0.92514   0.128269  
         C         C         0.99317   0.66238   0.93542   0.124656  
         C         C         0.17295   0.75779   0.90637   0.125963  
         C         C         0.19777   0.80723   0.92670   0.127512  
         C         C         0.03668   0.89453   0.02907   0.020793  
         C         C         0.15071   0.94580   0.12620   0.028320  
         C         C         0.91653   0.66654   0.90306   0.028387  
         C         C         0.97692   0.61336   0.96018   0.026012  
         C         C         0.24725   0.83767   0.93387   0.024264  
         C         C         0.19436   0.72875   0.90629   0.040006  
         C         C         0.27185   0.82393   0.86884   -0.118094           
         C         C         0.31970   0.85179   0.89478   -0.164403           
         C         C         0.34451   0.89574   0.98100   0.213473  
         C         C         0.31947   0.91108   0.03691   -0.190342           
         C         C         0.27179   0.88230   0.01515   -0.084238           
         C         C         0.16997   0.68988   0.78896   -0.098968           
         C         C         0.18845   0.66065   0.79849   -0.168141           
         C         C         0.23099   0.66837   0.93003   0.195830  
         C         C         0.25518   0.70737   0.04613   -0.149341           
         C         C         0.23738   0.73710   0.03340   -0.116862           
         C         C         0.93787   0.58509   0.01289   -0.118918           
         C         C         0.92249   0.53866   0.02284   -0.156714           
         C         C         0.94559   0.51847   0.98091   0.205257  
         C         C         0.98738   0.54724   0.94381   -0.173310           
         C         C         0.00251   0.59364   0.93323   -0.092889           
         C         C         0.90365   0.68978   0.98905   -0.102612           
         C         C         0.85705   0.67213   0.98086   -0.174447           
         C         C         0.82118   0.63006   0.88563   0.196280  
         C         C         0.83366   0.60837   0.79108   -0.155095           
         C         C         0.88030   0.62640   0.79815   -0.111978           
         C         C         0.04494   0.93715   0.96549   -0.104207           
         C         C         0.01782   0.95645   0.97151   -0.166281           
         C         C         0.97980   0.93255   0.03337   0.201007  
         C         C         0.96938   0.88858   0.08673   -0.184146           
         C         C         0.99771   0.87011   0.08555   -0.097956           
         C         C         0.19521   0.96491   0.10380   -0.090620           
         C         C         0.22759   0.01116   0.14217   -0.177434           
         C         C         0.21648   0.04090   0.20143   0.204915  
         C         C         0.17419   0.02133   0.23866   -0.154839           
         C         C         0.14231   0.97473   0.20389   -0.115697           
         C         C         0.91073   0.93385   0.00708   0.068719  
         C         C         0.27542   0.11027   0.15259   0.072116  
         C         C         0.41430   0.96319   0.98935   0.070969  
         C         C         0.23409   0.60279   0.87039   0.065425  
         C         C         0.93129   0.44622   0.89638   0.070380  
         C         C         0.75657   0.62483   0.94440   0.075649  
         C         C         0.30103   0.15992   0.15988   0.047232  
         C         C         0.46541   0.98813   0.02387   0.048966  
         C         C         0.49393   0.96845   0.11102   -0.097011           
         C         C         0.54165   0.99049   0.12999   -0.138123           
         C         C         0.56285   0.03280   0.06259   0.072335  
         C         C         0.53455   0.05296   0.97996   -0.139472           
         C         C         0.48665   0.03106   0.96199   -0.131648           
         C         C         0.33981   0.18193   0.10149   -0.124215           
         C         C         0.36285   0.22915   0.09707   -0.141576           
         C         C         0.34768   0.25631   0.14853   0.067131  
         C         C         0.30919   0.23397   0.20965   -0.138899           
         C         C         0.28641   0.18692   0.21576   -0.099377           
         C         C         0.36973   0.30571   0.12912   0.036775  
         C         C         0.61228   0.05383   0.06926   0.042341  
         C         C         0.63109   0.02678   0.04745   -0.116671           
         C         C         0.67623   0.04581   0.03724   -0.198385           
         C         C         0.70574   0.09366   0.05106   0.190047  
         C         C         0.68816   0.12069   0.08617   -0.193886           
         C         C         0.64257   0.10136   0.09194   -0.115746           
         C         C         0.41585   0.33063   0.12212   -0.117570           
         C         C         0.43583   0.37639   0.08990   -0.189599           
         C         C         0.41026   0.40047   0.05896   0.187654  
         C         C         0.36499   0.37629   0.07578   -0.204294           
         C         C         0.34565   0.33063   0.11021   -0.111245           
         C         C         0.47446   0.47318   0.00345   0.183024  
         C         C         0.40087   0.46870   0.00407   0.164186  
         C         C         0.77206   0.08418   0.04909   0.162088  
         C         C         0.77656   0.15885   -0.00347  0.188347  
         C         C         0.82530   0.17966   0.02015   -0.192049           
         C         C         0.85014   0.22463   0.98351   -0.117300           
         C         C         0.82808   0.25145   0.92208   0.046446  
         C         C         0.77885   0.22952   0.88757   -0.124754           
         C         C         0.75371   0.18466   0.92191   -0.181825           
         C         C         0.75161   0.04861   0.92250   -0.160564           
         C         C         0.77136   0.02058   0.93140   -0.123197           
         C         C         0.81337   0.02793   0.06438   0.053486  
         C         C         0.83337   0.06370   0.19126   -0.126253           
         C         C         0.81294   0.09106   0.18523   -0.151927           
         C         C         0.49116   0.45356   0.92088   -0.188253           
         C         C         0.53515   0.47870   0.90051   -0.117570           
         C         C         0.56556   0.52516   0.96095   0.045402  
         C         C         0.54785   0.54489   0.03835   -0.118368           
         C         C         0.50377   0.52002   0.05866   -0.183537           
         C         C         0.41534   0.50525   0.11693   -0.163018           
         C         C         0.38785   0.52632   0.09407   -0.119727           
         C         C         0.34327   0.51015   0.96436   0.055285  
         C         C         0.32862   0.47247   0.85420   -0.128537           
         C         C         0.35707   0.45282   0.87102   -0.156232           
         C         C         0.31345   0.53152   0.94714   0.058572  
         C         C         0.61331   0.55099   0.94773   0.069455  
         C         C         0.85453   0.30066   0.90545   0.068656  
         C         C         0.83696   0.00129   0.06269   0.063315  
         C         C         0.32837   0.56847   0.06203   -0.133854           
         C         C         0.30232   0.59072   0.04098   -0.100678           
         C         C         0.25948   0.57695   0.90296   0.056503  
         C         C         0.24284   0.53856   0.79378   -0.133330           
         C         C         0.26925   0.51641   0.81528   -0.137230           
         C         C         0.89512   0.32081   0.85732   -0.144378           
         C         C         0.91987   0.36804   0.85052   -0.125817           
         C         C         0.90549   0.39654   0.89669   0.048868  
         C         C         0.86439   0.37629   0.94208   -0.105490           
         C         C         0.83932   0.32939   0.94484   -0.137969           
         C         C         0.81317   0.96038   0.95672   -0.139453           
         C         C         0.83692   0.93791   0.94324   -0.127123           
         C         C         0.88557   0.95564   0.03429   0.051484  
         C         C         0.90920   0.99531   0.14636   -0.101215           
         C         C         0.88533   0.01742   0.16047   -0.131613           
         C         C         0.63320   0.52896   0.89311   -0.132795           
         C         C         0.67923   0.55235   0.89113   -0.092051           
         C         C         0.70819   0.59931   0.94560   0.058617  
         C         C         0.68856   0.62175   -0.00263  -0.132775           
         C         C         0.64206   0.59830   -0.00371  -0.143968           
         N         N         0.13588   0.87406   0.03204   -0.251818           
         N         N         0.04083   0.82790   -0.00202  -0.265430           
         N         N         0.99051   0.73236   0.94026   -0.262914           
         N         N         0.03696   0.68567   0.92618   -0.254841           
         N         N         0.12756   0.73391   0.89776   -0.261197           
         N         N         0.17594   0.82911   0.94759   -0.255235           
         N         N         0.95632   0.95502   0.05166   -0.275870           
         N         N         0.24342   0.08879   0.22414   -0.308470           
         N         N         0.39319   0.92039   0.01277   -0.272425           
         N         N         0.25270   0.64109   0.95887   -0.291715           
         N         N         0.92459   0.47099   0.98230   -0.301382           
         N         N         0.77417   0.60626   0.88212   -0.296632           
         N         N         0.42915   0.44695   0.02365   -0.134114           
         N         N         0.75154   0.11327   0.03791   -0.134597 

