
##########################################################################
#               Crystallographic Information Format file
#               Produced by PyCifRW module
#
#  This is a CIF file.  CIF has been adopted by the International
#  Union of Crystallography as the standard for data archiving and
#  transmission.
#
#  For information on this file format, follow the CIF links at
#  http://www.iucr.org
##########################################################################

data_image0

_cell_length_a                          26.2395
_cell_length_b                          25.8146
_cell_length_c                          8.59272
_cell_angle_alpha                       89.7165
_cell_angle_beta                        91.5358
_cell_angle_gamma                       119.9
_symmetry_space_group_name_H-M          'P 1'
_space_group_name_Hall                  'P 1'
loop_
  _atom_site_type_symbol
  _atom_site_label
  _atom_site_fract_x
  _atom_site_fract_y
  _atom_site_fract_z
  _atom_site_charge
         H         H         0.10410   0.88029   0.35751   0.100963  
         H         H         0.21217   0.93576   0.38007   0.117796  
         H         H         0.21188   0.10174   0.35050   0.106742  
         H         H         0.10300   0.04598   0.32952   0.118132  
         H         H         0.93053   0.75280   0.39345   0.115280  
         H         H         0.95564   0.67499   0.31420   0.120071  
         H         H         0.08352   0.80042   0.00283   0.106892  
         H         H         0.06164   0.87802   0.09079   0.096928  
         H         H         0.67280   0.69633   0.20905   0.099631  
         H         H         0.63123   0.58912   0.26922   0.120551  
         H         H         0.76166   0.58764   0.51261   0.113312  
         H         H         0.80528   0.69596   0.46247   0.118394  
         H         H         0.68634   0.85822   0.16991   0.119242  
         H         H         0.57862   0.82303   0.16104   0.110870  
         H         H         0.55388   0.67984   0.37286   0.123152  
         H         H         0.66071   0.71512   0.40193   0.097087  
         H         H         0.90003   0.15116   0.01626   0.103320  
         H         H         0.83780   0.19496   0.07874   0.123501  
         H         H         0.73835   0.04965   0.38945   0.113968  
         H         H         0.80034   0.00549   0.32602   0.119625  
         H         H         0.05526   0.13056   0.46809   0.116753  
         H         H         0.12384   0.23949   0.44746   0.111304  
         H         H         0.01543   0.26710   0.26174   0.123409  
         H         H         0.95037   0.15780   0.29029   0.103528  
         H         H         0.66944   0.07089   0.25144   0.061985  
         H         H         0.14254   0.32550   0.36352   0.069446  
         H         H         0.27790   0.10433   0.07684   0.063106  
         H         H         0.11333   0.73209   0.49377   0.067182  
         H         H         0.68991   0.49243   0.96124   0.068834  
         H         H         0.48616   0.79222   0.98202   0.062723  
         H         H         0.39461   0.08013   0.40171   0.115742  
         H         H         0.50028   0.14210   0.48155   0.113017  
         H         H         0.45741   0.23786   0.30293   0.115995  
         H         H         0.35486   0.18102   0.21228   0.109092  
         H         H         0.21609   0.41881   0.24523   0.110314  
         H         H         0.25411   0.52637   0.19117   0.115890  
         H         H         0.13558   0.52525   0.04218   0.111778  
         H         H         0.09323   0.41573   0.07681   0.118558  
         H         H         0.63166   0.29028   0.49758   0.113294  
         H         H         0.68495   0.39959   0.45087   0.114260  
         H         H         0.57568   0.41839   0.26495   0.116238  
         H         H         0.52718   0.31098   0.32712   0.117083  
         H         H         0.51106   0.10893   0.21900   0.116275  
         H         H         0.57319   0.06350   0.24920   0.103197  
         H         H         0.72640   0.23679   0.30486   0.116575  
         H         H         0.66528   0.28368   0.26931   0.114546  
         H         H         0.29953   0.56492   0.44116   0.111088  
         H         H         0.39925   0.62633   0.04200   0.111975  
         H         H         0.38669   0.78467   0.42793   0.103121  
         H         H         0.28316   0.72067   0.35468   0.117528  
         H         H         0.26054   0.68892   0.12574   0.110783  
         H         H         0.20396   0.73584   0.03137   0.106965  
         H         H         0.04889   0.59590   0.23888   0.117762  
         H         H         0.10541   0.54939   0.33626   0.117338  
         C         C         0.85666   0.85417   0.50279   0.094136  
         C         C         0.91547   0.88090   0.44234   0.094660  
         C         C         0.95507   0.94323   0.45700   0.093117  
         C         C         0.93348   0.97775   0.01387   0.095698  
         C         C         0.87364   0.95111   0.05704   0.097124  
         C         C         0.83397   0.88714   0.03673   0.095629  
         C         C         0.94939   0.07033   0.09672   0.119937  
         C         C         0.88749   0.04407   0.12649   0.131686  
         C         C         0.74123   0.80350   0.04870   0.128796  
         C         C         0.76756   0.76608   0.02898   0.124784  
         C         C         0.98671   0.86752   0.32568   0.128697  
         C         C         0.02945   0.92959   0.35721   0.125506  
         C         C         0.85508   0.07527   0.16834   0.016690  
         C         C         0.99360   0.13445   0.11554   0.037149  
         C         C         0.67758   0.78230   0.04413   0.022010  
         C         C         0.74023   0.70153   0.06200   0.036199  
         C         C         0.09457   0.95900   0.34550   0.031781  
         C         C         0.99701   0.82166   0.25469   0.034936  
         C         C         0.12681   0.92869   0.35615   -0.113577           
         C         C         0.18794   0.95964   0.36821   -0.166996           
         C         C         0.21970   0.02240   0.37549   0.215146  
         C         C         0.18822   0.05316   0.35479   -0.190807           
         C         C         0.12713   0.02198   0.34041   -0.089328           
         C         C         0.96427   0.76267   0.30913   -0.093915           
         C         C         0.97769   0.71937   0.26384   -0.157043           
         C         C         0.02399   0.73328   0.16255   0.209769  
         C         C         0.05123   0.79007   0.09203   -0.182233           
         C         C         0.03837   0.83353   0.13969   -0.118303           
         C         C         0.69214   0.67182   0.15977   -0.121256           
         C         C         0.66826   0.61156   0.19261   -0.153758           
         C         C         0.69100   0.57793   0.12571   0.203804  
         C         C         0.74053   0.60781   0.03132   -0.171212           
         C         C         0.76464   0.66831   0.00056   -0.091173           
         C         C         0.65542   0.81669   0.11048   -0.092585           
         C         C         0.59541   0.79744   0.10293   -0.184305           
         C         C         0.55741   0.74705   0.52697   0.209223  
         C         C         0.58244   0.71781   0.44765   -0.159638           
         C         C         0.64196   0.73801   0.46307   -0.116859           
         C         C         0.86523   0.12904   0.09934   -0.110380           
         C         C         0.83050   0.15388   0.13385   -0.166531           
         C         C         0.78271   0.12461   0.23375   0.207623  
         C         C         0.77254   0.07093   0.30404   -0.179425           
         C         C         0.80810   0.04675   0.27088   -0.098521           
         C         C         0.04489   0.15782   0.02665   -0.098678           
         C         C         0.08237   0.21893   0.01477   -0.174534           
         C         C         0.06916   0.25909   0.09039   0.194742  
         C         C         0.02280   0.23573   0.19555   -0.155995           
         C         C         0.98604   0.17448   0.20929   -0.110777           
         C         C         0.69228   0.11992   0.26324   0.070175  
         C         C         0.13215   0.35031   0.44845   0.069538  
         C         C         0.30546   0.09175   0.01037   0.074742  
         C         C         0.09500   0.70713   0.10868   0.070438  
         C         C         0.66583   0.47905   0.07041   0.068882  
         C         C         0.46549   0.74353   -0.00263  0.069261  
         C         C         0.15529   0.41376   0.41793   0.052866  
         C         C         0.36834   0.12619   0.04904   0.044790  
         C         C         0.40850   0.11538   0.48901   -0.091724           
         C         C         0.46989   0.14929   0.03186   -0.176575           
         C         C         0.48818   0.19405   0.14738   0.180922  
         C         C         0.44582   0.20537   0.21001   -0.174512           
         C         C         0.38725   0.17243   0.15976   -0.115355           
         C         C         0.19936   0.44337   0.30848   -0.117756           
         C         C         0.22080   0.50359   0.27762   -0.156199           
         C         C         0.19957   0.53578   0.35773   0.164410  
         C         C         0.15642   0.50691   0.46910   -0.165348           
         C         C         0.12825   0.44019   0.99548   -0.093448           
         C         C         0.18915   0.61929   0.25256   0.186119  
         C         C         0.28340   0.63714   0.37799   0.194631  
         C         C         0.57802   0.29144   0.16794   0.169528  
         C         C         0.58318   0.20055   0.22897   0.192827  
         C         C         0.62408   0.31671   0.06285   -0.167845           
         C         C         0.65278   0.37766   0.03286   -0.117912           
         C         C         0.63569   0.41521   0.10504   0.047253  
         C         C         0.58877   0.38949   0.20786   -0.100696           
         C         C         0.56087   0.32875   0.24044   -0.170986           
         C         C         0.55820   0.13781   0.23444   -0.202078           
         C         C         0.59365   0.11202   0.25308   -0.113808           
         C         C         0.65512   0.14692   0.27130   0.031573  
         C         C         0.67918   0.20924   0.28353   -0.078617           
         C         C         0.64444   0.23536   0.26338   -0.197632           
         C         C         0.31814   0.61286   0.43425   -0.197621           
         C         C         0.37646   0.64930   0.47802   -0.078565           
         C         C         0.40374   0.71194   0.47059   0.031746  
         C         C         0.36816   0.73639   0.42846   -0.120123           
         C         C         0.30933   0.70003   0.38392   -0.194695           
         C         C         0.21484   0.66973   0.15620   -0.191675           
         C         C         0.18253   0.69552   0.10108   -0.120182           
         C         C         0.12286   0.67129   0.13608   0.037420  
         C         C         0.09545   0.61637   0.21472   -0.091792           
         C         C         0.12767   0.59061   0.27140   -0.186577           
         N         N         0.97006   0.03638   0.03858   -0.259528           
         N         N         0.85220   0.98487   0.11104   -0.263590           
         N         N         0.77631   0.86272   0.06321   -0.255386           
         N         N         0.82351   0.79454   0.50837   -0.243708           
         N         N         0.93157   0.84526   0.37307   -0.257349           
         N         N         0.01123   0.96567   0.41616   -0.262876           
         N         N         0.74890   0.15198   0.25627   -0.292882           
         N         N         0.09605   0.32074   0.06605   -0.305077           
         N         N         0.28076   0.05063   0.40444   -0.291125           
         N         N         0.04255   0.69092   0.15465   -0.305757           
         N         N         0.66241   0.51687   0.16157   -0.296568           
         N         N         0.49679   0.72028   0.51033   -0.279771           
         N         N         0.22444   0.59873   0.32792   -0.129055           
         N         N         0.54905   0.22812   0.19721   -0.146987           
         H         H         0.10392   0.87809   0.88259   0.099353  
         H         H         0.21178   0.93217   0.91077   0.118467  
         H         H         0.21466   0.09871   0.84675   0.105799  
         H         H         0.10526   0.04379   0.82034   0.118999  
         H         H         0.92311   0.75042   0.83816   0.118871  
         H         H         0.94909   0.67245   0.76941   0.121096  
         H         H         0.10243   0.80656   0.53969   0.108551  
         H         H         0.07622   0.88233   0.60646   0.099012  
         H         H         0.66635   0.69778   0.70940   0.100108  
         H         H         0.62345   0.58988   0.76602   0.121297  
         H         H         0.76012   0.58350   0.98075   0.113158  
         H         H         0.80254   0.69112   0.92697   0.115669  
         H         H         0.68253   0.85509   0.71174   0.118965  
         H         H         0.57474   0.81868   0.68743   0.109308  
         H         H         0.54706   0.66730   0.90203   0.122085  
         H         H         0.65364   0.70127   0.91650   0.099778  
         H         H         0.90037   0.15598   0.51204   0.104640  
         H         H         0.83726   0.19882   0.57014   0.125304  
         H         H         0.73697   0.05365   0.87961   0.114178  
         H         H         0.80044   0.01078   0.82335   0.119103  
         H         H         0.05246   0.12637   0.96156   0.116737  
         H         H         0.11998   0.23552   0.93967   0.111136  
         H         H         0.01700   0.27275   0.75668   0.124027  
         H         H         0.95027   0.16386   0.78326   0.105200  
         H         H         0.66855   0.07404   0.73797   0.062653  
         H         H         0.14232   0.32219   0.86710   0.068439  
         H         H         0.27514   0.10535   0.57204   0.062898  
         H         H         0.12434   0.75187   0.06220   0.061797  
         H         H         0.69168   0.49675   0.47793   0.070003  
         H         H         0.48779   0.79674   0.48995   0.064238  
         H         H         0.39765   0.08103   0.89500   0.115124  
         H         H         0.50282   0.14210   0.97762   0.111686  
         H         H         0.45543   0.24032   0.80051   0.116041  
         H         H         0.35233   0.18206   0.71296   0.108717  
         H         H         0.21560   0.41674   0.75290   0.110074  
         H         H         0.25409   0.52514   0.70620   0.120345  
         H         H         0.14202   0.53230   0.53750   0.115952  
         H         H         0.10036   0.42352   0.58304   0.116405  
         H         H         0.63659   0.28785   0.00345   0.114544  
         H         H         0.68803   0.39640   0.94974   0.110942  
         H         H         0.57617   0.42116   0.77935   0.115005  
         H         H         0.52721   0.31310   0.83812   0.117631  
         H         H         0.50940   0.11143   0.72212   0.119041  
         H         H         0.57170   0.06623   0.74425   0.103781  
         H         H         0.72558   0.23993   0.78174   0.115540  
         H         H         0.66431   0.28656   0.75465   0.114414  
         H         H         0.29493   0.56149   0.97062   0.109563  
         H         H         0.40327   0.62998   0.51516   0.112506  
         H         H         0.38754   0.78067   0.91109   0.102109  
         H         H         0.28328   0.71710   0.84197   0.118444  
         H         H         0.25551   0.67686   0.61877   0.108100  
         H         H         0.19791   0.71904   0.49933   0.102256  
         H         H         0.04941   0.60041   0.76930   0.117649  
         H         H         0.10566   0.55682   0.88496   0.114470  
         C         C         0.85585   0.85111   0.97838   0.094875  
         C         C         0.91521   0.87875   0.92113   0.093558  
         C         C         0.95485   0.94067   0.94477   0.093161  
         C         C         0.93439   0.98125   0.52486   0.096984  
         C         C         0.87515   0.95513   0.57331   0.095435  
         C         C         0.83533   0.89091   0.55947   0.092104  
         C         C         0.95059   0.07503   0.59895   0.121214  
         C         C         0.88880   0.04917   0.62999   0.130185  
         C         C         0.74231   0.80797   0.57045   0.131466  
         C         C         0.76772   0.76974   0.55158   0.123866  
         C         C         0.98816   0.86695   0.80895   0.125585  
         C         C         0.03062   0.92800   0.85217   0.126091  
         C         C         0.85572   0.08029   0.66582   0.016556  
         C         C         0.99491   0.13930   0.61524   0.034056  
         C         C         0.67881   0.78708   0.55988   0.023558  
         C         C         0.73871   0.70471   0.58070   0.034187  
         C         C         0.09591   0.95696   0.85012   0.028766  
         C         C         -0.00038  0.82234   0.73515   0.032190  
         C         C         0.12737   0.92635   0.87419   -0.114178           
         C         C         0.18837   0.95651   0.88958   -0.167048           
         C         C         0.22078   0.01929   0.88586   0.213859  
         C         C         0.19001   0.05028   0.85659   -0.190221           
         C         C         0.12898   0.01968   0.83923   -0.089293           
         C         C         0.96168   0.76165   0.77066   -0.091909           
         C         C         0.97584   0.71841   0.73168   -0.158277           
         C         C         0.02845   0.73395   0.65564   0.209279  
         C         C         0.06265   0.79335   0.60384   -0.182015           
         C         C         0.04816   0.83650   0.64267   -0.116411           
         C         C         0.68729   0.67381   0.66654   -0.123761           
         C         C         0.66269   0.61324   0.69714   -0.154814           
         C         C         0.68785   0.58043   0.63898   0.204051  
         C         C         0.74023   0.61137   0.55559   -0.172509           
         C         C         0.76507   0.67213   0.52733   -0.090947           
         C         C         0.65411   0.81697   0.63722   -0.095344           
         C         C         0.59408   0.79717   0.62161   -0.184684           
         C         C         0.55577   0.74295   0.02794   0.212932  
         C         C         0.57814   0.70896   0.96051   -0.160421           
         C         C         0.63764   0.72852   0.96768   -0.119896           
         C         C         0.86553   0.13367   0.59482   -0.112327           
         C         C         0.83022   0.15809   0.62662   -0.168086           
         C         C         0.78200   0.12873   0.72482   0.208670  
         C         C         0.77186   0.07531   0.79631   -0.181685           
         C         C         0.80818   0.05175   0.76674   -0.096740           
         C         C         0.04720   0.16221   0.53063   -0.096382           
         C         C         0.08534   0.22330   0.51914   -0.177069           
         C         C         0.07184   0.26394   0.59086   0.194703  
         C         C         0.02439   0.24103   0.69239   -0.157721           
         C         C         0.98692   0.17991   0.70557   -0.108775           
         C         C         0.69110   0.12305   0.75027   0.070873  
         C         C         0.12990   0.34605   0.94971   0.070354  
         C         C         0.30335   0.09312   0.50754   0.073570  
         C         C         0.09145   0.69801   0.58355   0.077208  
         C         C         0.66486   0.48226   0.58249   0.067318  
         C         C         0.46725   0.74775   0.49508   0.067905  
         C         C         0.15209   0.40932   0.91967   0.049790  
         C         C         0.36584   0.12676   0.55101   0.044102  
         C         C         0.41104   0.11528   0.98495   -0.091549           
         C         C         0.46744   0.14976   0.53472   -0.175669           
         C         C         0.48585   0.19561   0.64738   0.179252  
         C         C         0.44345   0.20710   0.70923   -0.175384           
         C         C         0.38473   0.17346   0.66054   -0.116120           
         C         C         0.19791   0.44053   0.81565   -0.118875           
         C         C         0.21950   0.50106   0.78896   -0.158019           
         C         C         0.19662   0.53193   0.86874   0.169455  
         C         C         0.15116   0.50107   0.97311   -0.167950           
         C         C         0.13370   0.44627   0.49643   -0.091342           
         C         C         0.18650   0.61600   0.76771   0.182196  
         C         C         0.28093   0.63334   0.89005   0.198116  
         C         C         0.57551   0.29384   0.66939   0.170577  
         C         C         0.58147   0.20315   0.72439   0.192672  
         C         C         0.62059   0.31938   0.56153   -0.167449           
         C         C         0.65020   0.38064   0.53548   -0.118239           
         C         C         0.63429   0.41811   0.61329   0.046009  
         C         C         0.58812   0.39207   0.71848   -0.100000           
         C         C         0.55979   0.33110   0.74843   -0.170023           
         C         C         0.55668   0.14047   0.73229   -0.203966           
         C         C         0.59227   0.11476   0.74643   -0.114092           
         C         C         0.65384   0.14980   0.75891   0.032449  
         C         C         0.67807   0.21218   0.76737   -0.079303           
         C         C         0.64317   0.23821   0.75134   -0.198150           
         C         C         0.31472   0.60933   0.95561   -0.203229           
         C         C         0.37332   0.64563   -0.00301  -0.078295           
         C         C         0.40184   0.70797   0.97694   0.029748  
         C         C         0.36743   0.73244   0.92342   -0.119994           
         C         C         0.30834   0.69629   0.88142   -0.197133           
         C         C         0.21065   0.66042   0.65362   -0.190251           
         C         C         0.17793   0.68386   0.58552   -0.118052           
         C         C         0.11991   0.66405   0.62961   0.041507  
         C         C         0.09439   0.61640   0.73486   -0.094009           
         C         C         0.12670   0.59246   0.80169   -0.179700           
         N         N         0.97086   0.04027   0.54360   -0.261990           
         N         N         0.85397   0.98971   0.62260   -0.262191           
         N         N         0.77766   0.86707   0.58611   -0.254431           
         N         N         0.82311   0.79142   0.98315   -0.245165           
         N         N         0.93207   0.84437   0.84882   -0.256474           
         N         N         0.01182   0.96345   0.91169   -0.262185           
         N         N         0.74769   0.15560   0.74483   -0.292385           
         N         N         0.09939   0.32569   0.56695   -0.301168           
         N         N         0.28205   0.04803   0.91112   -0.287420           
         N         N         0.04652   0.69149   0.65828   -0.296745           
         N         N         0.65881   0.51907   0.67138   -0.295326           
         N         N         0.49496   0.71623   0.01918   -0.288758           
         N         N         0.22164   0.59517   0.84458   -0.134765           
         N         N         0.54676   0.23027   0.69584   -0.144229 

