
##########################################################################
#               Crystallographic Information Format file
#               Produced by PyCifRW module
#
#  This is a CIF file.  CIF has been adopted by the International
#  Union of Crystallography as the standard for data archiving and
#  transmission.
#
#  For information on this file format, follow the CIF links at
#  http://www.iucr.org
##########################################################################

data_image0

_cell_length_a                          36.8204
_cell_length_b                          37.0594
_cell_length_c                          8.05426
_cell_angle_alpha                       120.36
_cell_angle_beta                        86.7322
_cell_angle_gamma                       120.346
_symmetry_space_group_name_H-M          'P 1'
_space_group_name_Hall                  'P 1'
loop_
  _atom_site_type_symbol
  _atom_site_label
  _atom_site_fract_x
  _atom_site_fract_y
  _atom_site_fract_z
  _atom_site_charge
         O         O         0.41489   0.94122   0.24131   -0.424261           
         C         C         0.48731   0.95648   0.26831   -0.050500           
         C         C         0.47275   0.91341   0.27596   0.087320  
         C         C         0.45730   0.96897   0.25056   0.280103  
         C         C         0.35314   0.70473   0.24403   0.370342  
         H         H         0.41152   0.91267   0.24751   0.299398  
         H         H         0.49757   0.90691   0.29682   0.079964  
         H         H         0.55436   0.97742   0.29406   0.140763  
         N         N         0.37704   0.68631   0.23924   -0.413373           
         N         N         0.43166   0.88403   0.26006   -0.287153           
         C         C         0.41505   0.84044   0.25711   0.217888  
         H         H         0.31864   0.75634   0.28075   0.112355  
         C         C         0.37197   0.81789   0.27392   -0.157109           
         C         C         0.35189   0.77386   0.26807   -0.082390           
         C         C         0.41727   0.77312   0.22751   -0.081992           
         C         C         0.43742   0.81707   0.23202   -0.180665           
         C         C         0.37437   0.75099   0.24650   -0.008745           
         H         H         0.35490   0.83594   0.29113   0.124776  
         H         H         0.43410   0.75464   0.20655   0.110666  
         H         H         0.46997   0.83242   0.20962   0.111724  
         O         O         0.05270   0.47147   0.26794   -0.417237           
         C         C         0.04310   0.52994   0.25133   -0.048341           
         C         C         0.08776   0.55814   0.24929   0.088203  
         C         C         0.02681   0.48642   0.25666   0.276159  
         C         C         0.29276   0.64169   0.24661   0.373498  
         H         H         0.08272   0.49655   0.26762   0.300860  
         H         H         0.09736   0.58890   0.23084   0.077191  
         H         H         0.02691   0.57702   0.23451   0.136331  
         N         N         0.31101   0.68393   0.24919   -0.412645           
         N         N         0.11496   0.54647   0.26439   -0.286544           
         C         C         0.15844   0.57197   0.25919   0.207012  
         H         H         0.24390   0.55819   0.25057   0.114006  
         C         C         0.18205   0.55133   0.25544   -0.155195           
         C         C         0.22555   0.57387   0.25213   -0.092049           
         C         C         0.22343   0.63881   0.25807   -0.082204           
         C         C         0.17996   0.61637   0.26148   -0.176696           
         C         C         0.24682   0.61786   0.25298   -0.004359           
         H         H         0.16537   0.51749   0.25656   0.124965  
         H         H         0.24017   0.67267   0.25717   0.110987  
         H         H         0.16278   0.63335   0.26448   0.111541  
         O         O         0.53382   0.58350   0.25711   -0.425070           
         C         C         0.47194   0.51300   0.25156   -0.039188           
         C         C         0.44351   0.52903   0.25318   0.090096  
         C         C         0.51659   0.54086   0.25158   0.283841  
         C         C         0.35594   0.64410   0.23861   0.371690  
         H         H         0.50865   0.58761   0.25171   0.301741  
         H         H         0.41007   0.50620   0.25724   0.076115  
         H         H         0.42139   0.44766   0.24729   0.132724  
         N         N         0.31366   0.61987   0.23920   -0.419774           
         N         N         0.45691   0.56831   0.24696   -0.295278           
         C         C         0.42971   0.58411   0.24261   0.205954  
         H         H         0.43979   0.67967   0.22986   0.113835  
         C         C         0.44895   0.62732   0.23749   -0.158849           
         C         C         0.42507   0.64659   0.23554   -0.090056           
         C         C         0.36161   0.57987   0.24219   -0.089001           
         C         C         0.38533   0.56037   0.24317   -0.182031           
         C         C         0.38110   0.62334   0.23926   -0.002821           
         H         H         0.48292   0.64506   0.23352   0.125229  
         H         H         0.32759   0.56209   0.24520   0.113026  
         H         H         0.36933   0.52704   0.24768   0.111601  
         O         O         0.58917   0.05562   0.27526   -0.425896           
         C         C         0.51676   0.04042   0.25001   -0.042117           
         C         C         0.53106   0.08310   0.24000   0.082483  
         C         C         0.54682   0.02805   0.26821   0.275924  
         C         C         0.64675   0.28959   0.25538   0.372045  
         H         H         0.59242   0.08400   0.26831   0.300751  
         H         H         0.50611   0.08964   0.22168   0.079844  
         H         H         0.44983   0.01975   0.22481   0.139693  
         N         N         0.62145   0.30622   0.25648   -0.412428           
         N         N         0.57191   0.11213   0.25205   -0.279519           
         C         C         0.58781   0.15503   0.25014   0.213683  
         H         H         0.68526   0.24417   0.25439   0.115944  
         C         C         0.63194   0.18043   0.24951   -0.150965           
         C         C         0.65115   0.22418   0.25327   -0.088347           
         C         C         0.58256   0.21830   0.25552   -0.085242           
         C         C         0.56334   0.17475   0.25320   -0.172951           
         C         C         0.62669   0.24366   0.25544   -0.001645           
         H         H         0.65050   0.16495   0.24772   0.124996  
         H         H         0.56403   0.23387   0.25834   0.113032  
         H         H         0.52949   0.15655   0.25790   0.111738  
         O         O         0.94503   0.53212   0.22739   -0.419317           
         C         C         0.95504   0.47403   0.24424   -0.052236           
         C         C         0.91065   0.44572   0.24799   0.093472  
         C         C         0.97121   0.51742   0.23846   0.277870  
         C         C         0.70576   0.35355   0.25202   0.373036  
         H         H         0.91510   0.50699   0.22648   0.305468  
         H         H         0.90202   0.41590   0.27112   0.075562  
         H         H         0.97104   0.42676   0.25979   0.135679  
         N         N         0.68896   0.31169   0.25156   -0.412838           
         N         N         0.88251   0.45591   0.22958   -0.294642           
         C         C         0.83939   0.42893   0.23614   0.212195  
         H         H         0.75158   0.43886   0.26014   0.113554  
         C         C         0.81427   0.44842   0.24788   -0.156954           
         C         C         0.77105   0.42403   0.25270   -0.091545           
         C         C         0.77639   0.35952   0.23221   -0.085594           
         C         C         0.81955   0.38372   0.22668   -0.178724           
         C         C         0.75148   0.37926   0.24535   -0.003179           
         H         H         0.82947   0.48284   0.25167   0.125069  
         H         H         0.76108   0.32498   0.22728   0.113193  
         H         H         0.83784   0.36734   0.21519   0.111158  
         O         O         0.46384   0.40883   0.23828   -0.423295           
         C         C         0.52575   0.47892   0.24096   -0.043824           
         C         C         0.55394   0.46269   0.23951   0.090334  
         C         C         0.48115   0.45120   0.24168   0.282925  
         C         C         0.64129   0.34821   0.25583   0.369284  
         H         H         0.48909   0.40488   0.24530   0.301004  
         H         H         0.58703   0.48431   0.22923   0.076085  
         H         H         0.57637   0.54436   0.24552   0.133411  
         N         N         0.68346   0.37364   0.25694   -0.413850           
         N         N         0.54045   0.42405   0.25112   -0.301115           
         C         C         0.56726   0.40786   0.25458   0.208465  
         H         H         0.55569   0.30875   0.24173   0.115340  
         C         C         0.54728   0.36296   0.24745   -0.156848           
         C         C         0.57094   0.34315   0.24569   -0.090737           
         C         C         0.63554   0.41289   0.26047   -0.087222           
         C         C         0.61205   0.43276   0.26226   -0.180706           
         C         C         0.61546   0.36795   0.25254   -0.000749           
         H         H         0.51290   0.34433   0.24445   0.125331  
         H         H         0.66993   0.43165   0.26443   0.112575  
         H         H         0.62848   0.46741   0.26728   0.113636  
         C         C         0.53145   0.98644   0.27762   -0.246411           
         C         C         0.01493   0.54457   0.24253   -0.242589           
         C         C         0.45519   0.46874   0.24627   -0.231155           
         C         C         0.47271   0.01076   0.24219   -0.249993           
         C         C         0.98314   0.45942   0.25317   -0.238263           
         C         C         0.54249   0.52316   0.24559   -0.235193           
         O         O         0.41373   0.94825   0.74623   -0.427107           
         C         C         0.48580   0.96222   0.76719   -0.042562           
         C         C         0.47105   0.91924   0.77617   0.089418  
         C         C         0.45610   0.97525   0.75159   0.276333  
         C         C         0.35349   0.71074   0.74527   0.370513  
         H         H         0.41007   0.91966   0.75249   0.302142  
         H         H         0.49570   0.91236   0.79525   0.076439  
         H         H         0.55245   0.98189   0.78762   0.138290  
         N         N         0.37831   0.69328   0.73980   -0.413563           
         N         N         0.43011   0.89044   0.76382   -0.280210           
         C         C         0.41371   0.84696   0.76204   0.214235  
         H         H         0.31798   0.76195   0.78591   0.114529  
         C         C         0.37075   0.82406   0.78003   -0.154087           
         C         C         0.35114   0.77981   0.77256   -0.085881           
         C         C         0.41690   0.77999   0.73081   -0.086958           
         C         C         0.43649   0.82404   0.73660   -0.173615           
         C         C         0.37399   0.75722   0.74892   -0.001525           
         H         H         0.35345   0.84203   0.80009   0.125464  
         H         H         0.43409   0.76187   0.70953   0.114657  
         H         H         0.46910   0.83991   0.71537   0.111615  
         O         O         0.05437   0.46974   0.77635   -0.420482           
         C         C         0.04409   0.52600   0.74560   -0.049960           
         C         C         0.08843   0.55372   0.73964   0.091659  
         C         C         0.02810   0.48396   0.76071   0.276142  
         C         C         0.29416   0.64702   0.74905   0.374693  
         H         H         0.08435   0.49468   0.77682   0.304551  
         H         H         0.09671   0.58224   0.70875   0.074562  
         H         H         0.02802   0.57162   0.71603   0.134405  
         N         N         0.31136   0.68908   0.75061   -0.413453           
         N         N         0.11691   0.54474   0.76624   -0.292185           
         C         C         0.16019   0.57179   0.76130   0.211137  
         H         H         0.24894   0.56395   0.75659   0.113057  
         C         C         0.18575   0.55346   0.76002   -0.155572           
         C         C         0.22910   0.57785   0.75637   -0.091157           
         C         C         0.22305   0.64034   0.75980   -0.083480           
         C         C         0.17972   0.61605   0.76340   -0.180008           
         C         C         0.24833   0.62151   0.75532   -0.005806           
         H         H         0.17077   0.52006   0.76385   0.123518  
         H         H         0.23816   0.67414   0.75914   0.111002  
         H         H         0.16104   0.63159   0.76778   0.111154  
         O         O         0.53478   0.58912   0.75813   -0.424833           
         C         C         0.47231   0.51861   0.75079   -0.046464           
         C         C         0.44444   0.53530   0.75345   0.091400  
         C         C         0.51703   0.54629   0.75148   0.282990  
         C         C         0.35822   0.65129   0.74070   0.371872  
         H         H         0.50978   0.59358   0.75310   0.301871  
         H         H         0.41092   0.51296   0.75801   0.075535  
         H         H         0.42116   0.45320   0.74463   0.133089  
         N         N         0.31620   0.62655   0.74304   -0.413193           
         N         N         0.45854   0.57492   0.74830   -0.302612           
         C         C         0.43189   0.59135   0.74478   0.208994  
         H         H         0.44344   0.68921   0.74630   0.113930  
         C         C         0.45178   0.63557   0.74672   -0.158187           
         C         C         0.42817   0.65522   0.74563   -0.090868           
         C         C         0.36378   0.58679   0.73911   -0.086254           
         C         C         0.38727   0.56717   0.74057   -0.180045           
         C         C         0.38377   0.63107   0.74194   -0.004868           
         H         H         0.48610   0.65379   0.74831   0.125048  
         H         H         0.32948   0.56844   0.73704   0.112216  
         H         H         0.37099   0.53335   0.74158   0.112182  
         O         O         0.58765   0.06009   0.76807   -0.423453           
         C         C         0.51582   0.04636   0.74911   -0.048654           
         C         C         0.53051   0.08933   0.74048   0.088019  
         C         C         0.54546   0.03318   0.76386   0.281938  
         C         C         0.64788   0.29641   0.76056   0.368381  
         H         H         0.59102   0.08843   0.76024   0.301206  
         H         H         0.50597   0.09694   0.72796   0.078050  
         H         H         0.44896   0.02643   0.72897   0.138120  
         N         N         0.62297   0.31335   0.76026   -0.412591           
         N         N         0.57125   0.11759   0.74806   -0.291649           
         C         C         0.58748   0.16073   0.74730   0.220054  
         H         H         0.68575   0.25015   0.75734   0.112933  
         C         C         0.63178   0.18616   0.74861   -0.158647           
         C         C         0.65150   0.23028   0.75493   -0.083567           
         C         C         0.58301   0.22468   0.75499   -0.078897           
         C         C         0.56322   0.18063   0.74921   -0.183361           
         C         C         0.62737   0.25020   0.75805   -0.009322           
         H         H         0.65013   0.17042   0.74628   0.126636  
         H         H         0.56473   0.24053   0.75789   0.110349  
         H         H         0.52902   0.16209   0.74903   0.111606  
         O         O         0.94662   0.52852   0.71514   -0.416384           
         C         C         0.95643   0.47196   0.74654   -0.052080           
         C         C         0.91195   0.44470   0.75219   0.089633  
         C         C         0.97253   0.51404   0.73144   0.275919  
         C         C         0.70741   0.35996   0.75688   0.375637  
         H         H         0.91658   0.50384   0.71689   0.300460  
         H         H         0.90286   0.41561   0.78060   0.076002  
         H         H         0.97245   0.42610   0.77490   0.133838  
         N         N         0.69023   0.31849   0.75943   -0.413745           
         N         N         0.88441   0.45517   0.72830   -0.287834           
         C         C         0.84109   0.43001   0.73599   0.210589  
         H         H         0.75415   0.44082   0.73226   0.113390  
         C         C         0.81660   0.44906   0.73115   -0.155768           
         C         C         0.77332   0.42662   0.73825   -0.092742           
         C         C         0.77755   0.36497   0.75200   -0.084520           
         C         C         0.82071   0.38723   0.74483   -0.178023           
         C         C         0.75325   0.38434   0.74933   -0.005152           
         H         H         0.83217   0.48134   0.71932   0.122994  
         H         H         0.76166   0.33236   0.76138   0.109572  
         H         H         0.83867   0.37147   0.74733   0.110705  
         O         O         0.46328   0.41336   0.73301   -0.423257           
         C         C         0.52536   0.48370   0.73884   -0.042833           
         C         C         0.55366   0.46767   0.73885   0.091002  
         C         C         0.48064   0.45597   0.73812   0.283866  
         C         C         0.64322   0.35527   0.75912   0.372030  
         H         H         0.48831   0.40890   0.73628   0.301360  
         H         H         0.58750   0.49120   0.74103   0.076190  
         H         H         0.57660   0.54924   0.74683   0.132898  
         N         N         0.68545   0.38027   0.75881   -0.419273           
         N         N         0.53994   0.42782   0.74138   -0.294804           
         C         C         0.56747   0.41250   0.74720   0.203182  
         H         H         0.56019   0.32126   0.78587   0.111041  
         C         C         0.54954   0.37130   0.76542   -0.157740           
         C         C         0.57393   0.35273   0.76974   -0.089420           
         C         C         0.63526   0.41608   0.73807   -0.089124           
         C         C         0.61100   0.43473   0.73406   -0.181051           
         C         C         0.61719   0.37485   0.75557   -0.004217           
         H         H         0.51618   0.35462   0.77798   0.124198  
         H         H         0.66852   0.43256   0.72423   0.112489  
         H         H         0.62569   0.46568   0.71442   0.109013  
         C         C         0.52983   0.99148   0.77336   -0.247741           
         C         C         0.01600   0.54013   0.73078   -0.239107           
         C         C         0.45508   0.47405   0.74433   -0.233882           
         C         C         0.47176   0.01708   0.74338   -0.247411           
         C         C         0.98452   0.45763   0.76032   -0.238678           
         C         C         0.54261   0.52824   0.74585   -0.229146 

