
##########################################################################
#               Crystallographic Information Format file
#               Produced by PyCifRW module
#
#  This is a CIF file.  CIF has been adopted by the International
#  Union of Crystallography as the standard for data archiving and
#  transmission.
#
#  For information on this file format, follow the CIF links at
#  http://www.iucr.org
##########################################################################

data_image0

_cell_length_a                          22.5807
_cell_length_b                          22.5706
_cell_length_c                          8.58782
_cell_angle_alpha                       90.0354
_cell_angle_beta                        90.0841
_cell_angle_gamma                       89.276
_symmetry_space_group_name_H-M          'P 1'
_space_group_name_Hall                  'P 1'
loop_
  _atom_site_type_symbol
  _atom_site_label
  _atom_site_fract_x
  _atom_site_fract_y
  _atom_site_fract_z
  _atom_site_charge
         N         N         0.96736   0.15417   0.51529   -0.276915           
         N         N         0.86900   0.19343   0.82648   -0.305005           
         C         C         0.98719   0.04880   0.11306   0.063848  
         C         C         0.93502   0.04540   0.20133   -0.117588           
         C         C         0.92537   0.08173   0.32942   -0.158096           
         C         C         0.96880   0.12251   0.37562   0.196196  
         C         C         0.02031   0.12703   0.28450   -0.160583           
         C         C         0.02921   0.09123   0.15448   -0.134507           
         C         C         0.91888   0.16288   0.59251   0.047190  
         C         C         0.92103   0.18881   0.74793   0.178170  
         C         C         0.97503   0.20561   0.81525   -0.143470           
         C         C         0.97541   0.22791   0.96482   -0.080905           
         C         C         0.92209   0.23417   0.04901   0.023939  
         C         C         0.87028   0.21525   0.97121   0.042686  
         H         H         0.90308   0.01123   0.17415   0.100374  
         H         H         0.88632   0.07471   0.40064   0.106763  
         H         H         0.05427   0.15788   0.32089   0.107045  
         H         H         0.07026   0.09449   0.08913   0.105556  
         H         H         0.87461   0.15128   0.55005   0.080115  
         H         H         0.01539   0.20112   0.74720   0.125362  
         H         H         0.01705   0.24167   0.01594   0.112126  
         H         H         0.82751   0.21718   0.02996   0.087481  
         N         N         0.46607   0.65622   0.01209   -0.275673           
         N         N         0.36867   0.70043   0.32083   -0.304242           
         C         C         0.48298   0.55029   0.61002   0.063695  
         C         C         0.43086   0.54809   0.69879   -0.117269           
         C         C         0.42229   0.58460   0.82714   -0.158243           
         C         C         0.46666   0.62446   0.87264   0.195643  
         C         C         0.51807   0.62795   0.78082   -0.158342           
         C         C         0.52588   0.59200   0.65070   -0.135662           
         C         C         0.41774   0.66682   0.08833   0.045409  
         C         C         0.42063   0.69281   0.24355   0.179881  
         C         C         0.47529   0.70694   0.31150   -0.143791           
         C         C         0.47646   0.72976   0.46050   -0.081180           
         C         C         0.42330   0.73889   0.54378   0.022401  
         C         C         0.37076   0.72261   0.46514   0.043013  
         H         H         0.39812   0.51465   0.67205   0.099539  
         H         H         0.38323   0.57857   0.89903   0.107003  
         H         H         0.55276   0.65811   0.81654   0.106775  
         H         H         0.56691   0.59434   0.58501   0.105288  
         H         H         0.37313   0.65706   0.04499   0.080658  
         H         H         0.51552   0.70006   0.24424   0.124850  
         H         H         0.51868   0.74143   0.51192   0.112527  
         H         H         0.32796   0.72700   0.52287   0.087193  
         N         N         0.03818   0.84368   0.51845   -0.276928           
         N         N         0.13585   0.80587   0.83346   -0.303990           
         C         C         0.01699   0.94754   0.11361   0.066047  
         C         C         0.06934   0.95150   0.20145   -0.118769           
         C         C         0.07943   0.91589   0.33073   -0.158385           
         C         C         0.03640   0.87501   0.37834   0.197042  
         C         C         0.98480   0.86973   0.28738   -0.158665           
         C         C         0.97537   0.90495   0.15651   -0.136679           
         C         C         0.08652   0.83591   0.59725   0.047130  
         C         C         0.08420   0.80980   0.75245   0.177328  
         C         C         0.03012   0.79192   0.81653   -0.142636           
         C         C         0.02925   0.76888   0.96521   -0.082271           
         C         C         0.08215   0.76306   0.05172   0.022490  
         C         C         0.13402   0.78332   0.97740   0.042539  
         H         H         0.10105   0.98567   0.17298   0.098930  
         H         H         0.11867   0.92342   0.40118   0.106709  
         H         H         0.95130   0.83858   0.32466   0.108154  
         H         H         0.93411   0.90117   0.09198   0.107264  
         H         H         0.13072   0.84832   0.55651   0.079598  
         H         H         0.99017   0.79583   0.74631   0.124248  
         H         H         0.98761   0.75413   0.01365   0.111524  
         H         H         0.17624   0.78199   0.03920   0.087270  
         N         N         0.53468   0.34464   0.01813   -0.276642           
         N         N         0.63374   0.30690   0.32997   -0.303544           
         C         C         0.51218   0.44868   0.61358   0.064554  
         C         C         0.56442   0.45316   0.70174   -0.117203           
         C         C         0.57485   0.41760   0.83099   -0.160380           
         C         C         0.53233   0.37612   0.87827   0.195780  
         C         C         0.48068   0.37053   0.78767   -0.156883           
         C         C         0.47089   0.40582   0.65696   -0.136950           
         C         C         0.58337   0.33667   0.09528   0.046320  
         C         C         0.58172   0.31060   0.25066   0.180854  
         C         C         0.52802   0.29254   0.31674   -0.144588           
         C         C         0.52794   0.26986   0.46580   -0.082611           
         C         C         0.58127   0.26469   0.55099   0.024445  
         C         C         0.63274   0.28484   0.47450   0.039383  
         H         H         0.59582   0.48766   0.67352   0.098732  
         H         H         0.61380   0.42575   0.90206   0.106672  
         H         H         0.44741   0.33911   0.82497   0.107838  
         H         H         0.42964   0.40177   0.59255   0.106437  
         H         H         0.62743   0.34888   0.05299   0.079304  
         H         H         0.48779   0.29605   0.24755   0.124735  
         H         H         0.48655   0.25499   0.51571   0.111483  
         H         H         0.67544   0.28373   0.53415   0.087978  
         N         N         0.15649   0.03325   0.48384   -0.275483           
         N         N         0.19726   0.13335   0.17961   -0.304215           
         C         C         0.05195   0.01243   0.88576   0.064338  
         C         C         0.04632   0.06419   0.79583   -0.116592           
         C         C         0.08193   0.07398   0.66723   -0.157894           
         C         C         0.12460   0.03119   0.62270   0.195829  
         C         C         0.13134   0.98003   0.71503   -0.159495           
         C         C         0.09601   0.97092   0.84532   -0.137703           
         C         C         0.16438   0.08227   0.40918   0.045994  
         C         C         0.19114   0.08088   0.25478   0.180465  
         C         C         0.20778   0.02677   0.18584   -0.146726           
         C         C         0.23112   0.02661   0.03760   -0.080623           
         C         C         0.23874   0.08027   0.95629   0.025122  
         C         C         0.22039   0.13227   0.03613   0.039172  
         H         H         0.01101   0.09575   0.82231   0.098889  
         H         H         0.07304   0.11257   0.59471   0.105810  
         H         H         0.16383   0.94666   0.67992   0.106704  
         H         H         0.10106   0.93014   0.91166   0.106145  
         H         H         0.15197   0.12632   0.45372   0.081138  
         H         H         0.20234   0.98614   0.25183   0.124637  
         H         H         0.24446   0.98474   0.98536   0.112410  
         H         H         0.22375   0.17544   0.98011   0.088582  
         N         N         0.65280   0.53243   0.98303   -0.274359           
         N         N         0.69639   0.63302   0.68272   -0.307006           
         C         C         0.54722   0.51250   0.38361   0.064628  
         C         C         0.54281   0.56460   0.29469   -0.118218           
         C         C         0.57894   0.57399   0.16680   -0.158153           
         C         C         0.62084   0.53048   0.12182   0.196940  
         C         C         0.62631   0.47889   0.21306   -0.162721           
         C         C         0.59044   0.47020   0.34258   -0.134071           
         C         C         0.66220   0.58159   0.91036   0.045253  
         C         C         0.68862   0.58033   0.75554   0.181866  
         C         C         0.70341   0.52621   0.68380   -0.144729           
         C         C         0.72645   0.52627   0.53522   -0.079850           
         C         C         0.73596   0.58018   0.45658   0.023272  
         C         C         0.71940   0.63214   0.53914   0.041728  
         H         H         0.50827   0.59697   0.32164   0.098822  
         H         H         0.57129   0.61311   0.09533   0.105681  
         H         H         0.65820   0.44486   0.17824   0.107232  
         H         H         0.59448   0.42915   0.40816   0.104934  
         H         H         0.65138   0.62571   0.95723   0.081506  
         H         H         0.69688   0.48535   0.74797   0.124570  
         H         H         0.73798   0.48433   0.48055   0.112205  
         H         H         0.72420   0.67556   0.48542   0.087220  
         N         N         0.84587   0.96535   0.48464   -0.277103           
         N         N         0.80060   0.86680   0.18142   -0.305311           
         C         C         0.95096   0.98380   0.88730   0.062887  
         C         C         0.95517   0.93170   0.79826   -0.116484           
         C         C         0.91933   0.92277   0.66915   -0.158455           
         C         C         0.87789   0.96667   0.62354   0.196357  
         C         C         0.87245   0.01812   0.71532   -0.158758           
         C         C         0.90791   0.02633   0.84597   -0.136064           
         C         C         0.83593   0.91660   0.41049   0.046442  
         C         C         0.80845   0.91897   0.25684   0.179733  
         C         C         0.79281   0.97364   0.18923   -0.143878           
         C         C         0.76888   0.97469   0.04146   -0.079199           
         C         C         0.75984   0.92132   0.95976   0.022340  
         C         C         0.77701   0.86875   0.03850   0.042363  
         H         H         0.98964   0.89926   0.82555   0.098934  
         H         H         0.92695   0.88381   0.59703   0.106518  
         H         H         0.84080   0.05229   0.67987   0.107117  
         H         H         0.90376   0.06732   0.91179   0.104797  
         H         H         0.84693   0.87219   0.45506   0.081336  
         H         H         0.79941   0.01388   0.25618   0.123396  
         H         H         0.75607   0.01690   0.99003   0.111596  
         H         H         0.77197   0.82577   0.98237   0.086966  
         N         N         0.34330   0.46441   0.97930   -0.277051           
         N         N         0.29814   0.36441   0.67884   -0.305256           
         C         C         0.44621   0.48441   0.38556   0.063503  
         C         C         0.44982   0.43140   0.30001   -0.117168           
         C         C         0.41465   0.42181   0.16989   -0.157229           
         C         C         0.37453   0.46616   0.11948   0.196439  
         C         C         0.36954   0.51856   0.20790   -0.158241           
         C         C         0.40425   0.52740   0.33976   -0.137424           
         C         C         0.33274   0.41532   0.90723   0.045194  
         C         C         0.30614   0.41698   0.75236   0.181335  
         C         C         0.29142   0.47128   0.68145   -0.143870           
         C         C         0.26850   0.47153   0.53249   -0.081371           
         C         C         0.25945   0.41774   0.45249   0.024017  
         C         C         0.27553   0.36557   0.53470   0.039826  
         H         H         0.48344   0.39858   0.33096   0.098238  
         H         H         0.42196   0.38195   0.10088   0.107446  
         H         H         0.33901   0.55298   0.16772   0.107636  
         H         H         0.40070   0.56913   0.40276   0.106978  
         H         H         0.34269   0.37108   0.95440   0.081613  
         H         H         0.29793   0.51197   0.74661   0.124077  
         H         H         0.25677   0.51357   0.47860   0.111954  
         H         H         0.27083   0.32229   0.47985   0.088205  
         N         N         0.53664   0.15566   0.23358   -0.275566           
         N         N         0.63623   0.19983   0.93224   -0.306005           
         C         C         0.51519   0.05148   0.63536   0.063729  
         C         C         0.56800   0.04711   0.54963   -0.117688           
         C         C         0.57793   0.08273   0.42091   -0.156193           
         C         C         0.53430   0.12393   0.37247   0.196270  
         C         C         0.48207   0.12946   0.46078   -0.160888           
         C         C         0.47285   0.09430   0.59126   -0.135227           
         C         C         0.58580   0.16524   0.16131   0.045052  
         C         C         0.58397   0.19186   0.00676   0.180931  
         C         C         0.52939   0.20653   0.93737   -0.142642           
         C         C         0.52851   0.22987   0.78917   -0.083118           
         C         C         0.58191   0.23923   0.70833   0.023908  
         C         C         0.63443   0.22277   0.78854   0.040700  
         H         H         0.60042   0.01303   0.58012   0.098118  
         H         H         0.61746   0.07516   0.35118   0.105589  
         H         H         0.44820   0.16091   0.42227   0.107630  
         H         H         0.43145   0.09849   0.65508   0.105300  
         H         H         0.62997   0.15443   0.20777   0.082168  
         H         H         0.48901   0.19980   0.00327   0.123645  
         H         H         0.48627   0.24175   0.73670   0.112712  
         H         H         0.67748   0.22773   0.73295   0.087306  
         N         N         0.03511   0.65472   0.73394   -0.277092           
         N         N         0.13544   0.69515   0.43074   -0.305993           
         C         C         0.01171   0.55022   0.13479   0.064199  
         C         C         0.06382   0.54412   0.04676   -0.116625           
         C         C         0.07425   0.57960   0.91818   -0.158356           
         C         C         0.03198   0.62258   0.87212   0.195535  
         C         C         0.98037   0.62968   0.96231   -0.158449           
         C         C         0.97062   0.59449   0.09256   -0.137180           
         C         C         0.08439   0.66239   0.66063   0.047146  
         C         C         0.08313   0.68941   0.50653   0.181524  
         C         C         0.02892   0.70627   0.43834   -0.144607           
         C         C         0.02850   0.72961   0.29010   -0.080271           
         C         C         0.08206   0.73713   0.20854   0.022813  
         C         C         0.13414   0.71833   0.28730   0.040234  
         H         H         0.09513   0.50871   0.07495   0.099844  
         H         H         0.11302   0.57060   0.84665   0.106706  
         H         H         0.94728   0.66229   0.92572   0.106955  
         H         H         0.92965   0.59981   0.15773   0.105599  
         H         H         0.12824   0.64933   0.70543   0.081636  
         H         H         0.98850   0.70108   0.50517   0.123669  
         H         H         0.98664   0.74320   0.23820   0.111275  
         H         H         0.17710   0.72119   0.23013   0.087537  
         N         N         0.46751   0.84519   0.23393   -0.276726           
         N         N         0.36958   0.80445   0.92451   -0.304809           
         C         C         0.48616   0.95066   0.63549   0.062925  
         C         C         0.43458   0.95585   0.54458   -0.117330           
         C         C         0.42530   0.91973   0.41625   -0.157023           
         C         C         0.46854   0.87728   0.37286   0.194472  
         C         C         0.51933   0.87085   0.46678   -0.159030           
         C         C         0.52784   0.90650   0.59693   -0.137519           
         C         C         0.41921   0.83726   0.15600   0.046088  
         C         C         0.42171   0.81041   0.00166   0.180500  
         C         C         0.47610   0.79390   0.93413   -0.144951           
         C         C         0.47693   0.77116   0.78499   -0.081614           
         C         C         0.42357   0.76393   0.70169   0.023764  
         C         C         0.37127   0.78184   0.78060   0.041981  
         H         H         0.40287   0.99120   0.56993   0.098820  
         H         H         0.38672   0.92808   0.34319   0.106094  
         H         H         0.55295   0.83843   0.43277   0.106005  
         H         H         0.56839   0.90158   0.66438   0.106332  
         H         H         0.37485   0.85012   0.19712   0.080633  
         H         H         0.51644   0.79900   0.00176   0.125242  
         H         H         0.51906   0.75817   0.73366   0.113553  
         H         H         0.32832   0.77840   0.72339   0.087345  
         N         N         0.96262   0.34408   0.73499   -0.275741           
         N         N         0.86594   0.30095   0.42545   -0.305425           
         C         C         0.98143   0.44972   0.13652   0.062284  
         C         C         0.92989   0.45505   0.04537   -0.117021           
         C         C         0.92061   0.41909   0.91659   -0.157424           
         C         C         0.96368   0.37641   0.87340   0.196009  
         C         C         0.01449   0.36996   0.96722   -0.160503           
         C         C         0.02300   0.40544   0.09762   -0.134883           
         C         C         0.91437   0.33495   0.65789   0.046818  
         C         C         0.91762   0.30761   0.50415   0.178319  
         C         C         0.97253   0.29150   0.43903   -0.142716           
         C         C         0.97427   0.26778   0.29100   -0.080256           
         C         C         0.92140   0.25968   0.20630   0.022565  
         C         C         0.86857   0.27783   0.28213   0.042942  
         H         H         0.89820   0.49039   0.07101   0.099379  
         H         H         0.88222   0.42761   0.84293   0.106833  
         H         H         0.04813   0.33764   0.93270   0.106626  
         H         H         0.06356   0.40040   0.16499   0.105463  
         H         H         0.86977   0.34697   0.69900   0.081399  
         H         H         0.01239   0.29759   0.50797   0.123687  
         H         H         0.01665   0.25453   0.24163   0.111901  
         H         H         0.82612   0.27426   0.22241   0.086965  
         N         N         0.34626   0.03647   0.26690   -0.275391           
         N         N         0.30701   0.13420   0.58034   -0.304502           
         C         C         0.44973   0.01647   0.86154   0.064014  
         C         C         0.45407   0.06842   0.95087   -0.117754           
         C         C         0.41867   0.07816   0.08063   -0.157757           
         C         C         0.37758   0.03508   0.12687   0.194327  
         C         C         0.37182   0.98399   0.03410   -0.158089           
         C         C         0.40675   0.97501   0.90264   -0.136003           
         C         C         0.33776   0.08487   0.34495   0.047007  
         C         C         0.31151   0.08247   0.49999   0.177897  
         C         C         0.29401   0.02831   0.56468   -0.141707           
         C         C         0.27069   0.02752   0.71304   -0.082294           
         C         C         0.26455   0.08049   0.79921   0.022067  
         C         C         0.28457   0.13244   0.72439   0.041958  
         H         H         0.48835   0.10010   0.92307   0.098959  
         H         H         0.42658   0.11700   0.15242   0.107128  
         H         H         0.34057   0.95040   0.07024   0.107091  
         H         H         0.40243   0.93426   0.83611   0.107001  
         H         H         0.34947   0.12917   0.30306   0.079569  
         H         H         0.29835   0.98827   0.49504   0.124519  
         H         H         0.25615   0.98578   0.76166   0.111079  
         H         H         0.28307   0.17490   0.78509   0.087836  
         N         N         0.84170   0.53894   0.76489   -0.277955           
         N         N         0.80467   0.63537   0.08272   -0.302932           
         C         C         0.94592   0.51662   0.36190   0.065007  
         C         C         0.95068   0.56881   0.45015   -0.117863           
         C         C         0.91483   0.57956   0.57856   -0.158248           
         C         C         0.87314   0.53712   0.62514   0.195832  
         C         C         0.86714   0.48572   0.53378   -0.158373           
         C         C         0.90237   0.47581   0.40337   -0.136629           
         C         C         0.83451   0.58703   0.84501   0.048088  
         C         C         0.80826   0.58413   -0.00005  0.178949  
         C         C         0.78997   0.52984   0.06222   -0.142436           
         C         C         0.76710   0.52831   0.21102   -0.083942           
         C         C         0.76179   0.58080   0.29958   0.023325  
         C         C         0.78231   0.63297   0.22674   0.039371  
         H         H         0.98565   0.59983   0.42294   0.099649  
         H         H         0.92286   0.61858   0.64955   0.106985  
         H         H         0.83535   0.45277   0.57057   0.107660  
         H         H         0.89784   0.43487   0.33780   0.107596  
         H         H         0.84740   0.63132   0.80567   0.079280  
         H         H         0.79358   0.49025   0.99057   0.124052  
         H         H         0.75235   0.48637   0.25791   0.112110  
         H         H         0.78108   0.67511   0.28894   0.087856  
         N         N         0.65433   0.96568   0.26865   -0.276891           
         N         N         0.69123   0.86823   0.58368   -0.305551           
         C         C         0.55071   0.98616   0.86333   0.065359  
         C         C         0.54655   0.93394   0.95152   -0.119238           
         C         C         0.58208   0.92391   0.08108   -0.156789           
         C         C         0.62279   0.96716   0.12878   0.196177  
         C         C         0.62820   0.01861   0.03770   -0.158037           
         C         C         0.59325   0.02787   0.90624   -0.136549           
         C         C         0.66160   0.91745   0.34797   0.046749  
         C         C         0.68799   0.91984   0.50275   0.180621  
         C         C         0.70666   0.97376   0.56690   -0.144589           
         C         C         0.72950   0.97452   0.71591   -0.082143           
         C         C         0.73428   0.92159   0.80256   0.021986  
         C         C         0.71367   0.86985   0.72775   0.043798  
         H         H         0.51241   0.90216   0.92294   0.099473  
         H         H         0.57455   0.88466   0.15140   0.107183  
         H         H         0.65925   0.05212   0.07577   0.106429  
         H         H         0.59713   0.06899   0.84123   0.106366  
         H         H         0.64823   0.87333   0.30831   0.079800  
         H         H         0.70315   0.01369   0.49672   0.125066  
         H         H         0.74457   0.01610   0.76473   0.112179  
         H         H         0.71455   0.82748   0.78867   0.087709  
         N         N         0.15235   0.46191   0.76390   -0.277013           
         N         N         0.19166   0.36345   0.07561   -0.304069           
         C         C         0.04668   0.48496   0.36319   0.065068  
         C         C         0.04160   0.43309   0.45234   -0.117643           
         C         C         0.07752   0.42248   0.58073   -0.158076           
         C         C         0.11998   0.46448   0.62551   0.195887  
         C         C         0.12634   0.51558   0.53344   -0.160098           
         C         C         0.09063   0.52557   0.40362   -0.135641           
         C         C         0.15971   0.41326   0.84147   0.046680  
         C         C         0.18702   0.41516   0.99543   0.179079  
         C         C         0.20514   0.46925   0.05946   -0.143037           
         C         C         0.22860   0.47020   0.20775   -0.083846           
         C         C         0.23436   0.41735   0.29448   0.022607  
         C         C         0.21446   0.36532   0.21947   0.041082  
         H         H         0.00666   0.40204   0.42482   0.099472  
         H         H         0.06926   0.38369   0.65218   0.106119  
         H         H         0.15879   0.54823   0.56865   0.108443  
         H         H         0.09533   0.56638   0.33771   0.106479  
         H         H         0.14619   0.36938   0.80041   0.081092  
         H         H         0.20090   0.50913   0.98929   0.124084  
         H         H         0.24339   0.51196   0.25582   0.111599  
         H         H         0.21631   0.32288   0.28002   0.086954  
         C         C         0.00179   0.99801   -0.00012  0.011386  
         C         C         0.49698   0.49882   0.49832   0.011376  
         C         C         0.50045   0.00122   0.74875   0.013001  
         C         C         0.99634   0.50044   0.24911   0.011216 

