
##########################################################################
#               Crystallographic Information Format file
#               Produced by PyCifRW module
#
#  This is a CIF file.  CIF has been adopted by the International
#  Union of Crystallography as the standard for data archiving and
#  transmission.
#
#  For information on this file format, follow the CIF links at
#  http://www.iucr.org
##########################################################################

data_image0

_cell_length_a                          36.2075
_cell_length_b                          36.2459
_cell_length_c                          7.89837
_cell_angle_alpha                       115.138
_cell_angle_beta                        89.5578
_cell_angle_gamma                       120.409
_symmetry_space_group_name_H-M          'P 1'
_space_group_name_Hall                  'P 1'
loop_
  _atom_site_type_symbol
  _atom_site_label
  _atom_site_fract_x
  _atom_site_fract_y
  _atom_site_fract_z
  _atom_site_charge
         N         N         0.44510   0.55321   0.25546   -0.202301           
         N         N         0.44856   0.88950   0.24334   -0.220579           
         N         N         0.10867   0.55496   0.24882   -0.202530           
         N         N         0.55284   0.44407   0.25416   -0.202721           
         N         N         0.55383   0.10665   0.24111   -0.219061           
         N         N         0.89088   0.44737   0.25666   -0.204483           
         C         C         0.53871   0.53755   0.24498   -0.074900           
         C         C         0.46304   0.00068   0.27224   -0.076812           
         C         C         0.00016   0.46290   0.26728   -0.072115           
         C         C         0.45922   0.45969   0.26529   -0.071043           
         C         C         0.53966   0.99512   0.20948   -0.069277           
         C         C         -0.00061  0.53980   0.23896   -0.072925           
         C         C         0.53647   0.49826   0.24770   -0.060765           
         C         C         0.50105   0.03666   0.25517   -0.062979           
         C         C         0.96239   0.46419   0.25984   -0.049828           
         C         C         0.46143   0.49895   0.26209   -0.065065           
         C         C         0.50162   0.95907   0.22635   -0.065762           
         C         C         0.03726   0.53871   0.24754   -0.045790           
         C         C         0.49829   0.46091   0.25839   -0.049876           
         C         C         0.53795   0.03399   0.22460   -0.053954           
         C         C         0.96187   0.50093   0.24458   -0.061010           
         C         C         0.49965   0.53637   0.25237   -0.047305           
         C         C         0.46482   0.96192   0.25746   -0.052985           
         C         C         0.03754   0.50157   0.26017   -0.064766           
         C         C         0.35422   0.70452   0.22303   0.370526  
         C         C         0.29066   0.64234   0.22707   0.373859  
         C         C         0.35365   0.64242   0.23348   0.378300  
         C         C         0.64557   0.29280   0.27072   0.373269  
         C         C         0.70847   0.35623   0.26945   0.376464  
         C         C         0.64459   0.35432   0.26203   0.374125  
         N         N         0.31092   0.68446   0.21956   -0.411278           
         N         N         0.31044   0.61969   0.23279   -0.412538           
         N         N         0.37704   0.68499   0.22975   -0.409714           
         N         N         0.68895   0.31390   0.27530   -0.413533           
         N         N         0.68784   0.37804   0.26392   -0.411825           
         N         N         0.62189   0.31151   0.26420   -0.406974           
         C         C         0.37855   0.75174   0.22340   -0.005943           
         C         C         0.24377   0.61982   0.23221   -0.006645           
         C         C         0.37706   0.61941   0.24033   -0.008844           
         C         C         0.62214   0.24533   0.26847   -0.006444           
         C         C         0.75549   0.37995   0.26654   -0.007388           
         C         C         0.62064   0.37692   0.25715   -0.007016           
         C         C         0.35592   0.57682   0.25723   -0.079508           
         C         C         0.42512   0.77985   0.27036   -0.074361           
         C         C         0.22122   0.64173   0.22959   -0.078869           
         C         C         0.64254   0.42156   0.25564   -0.081318           
         C         C         0.57558   0.21620   0.21848   -0.074787           
         C         C         0.77808   0.35763   0.26124   -0.079584           
         C         C         0.37789   0.55491   0.26260   -0.171099           
         C         C         0.44851   0.82532   0.27862   -0.181237           
         C         C         0.17710   0.62088   0.23583   -0.186566           
         C         C         0.62067   0.44390   0.25581   -0.169221           
         C         C         0.55284   0.17044   0.20738   -0.184578           
         C         C         0.82232   0.37937   0.25715   -0.185208           
         C         C         0.42220   0.57552   0.25051   0.204100  
         C         C         0.42519   0.84301   0.23614   0.194297  
         C         C         0.15411   0.57677   0.24296   0.202175  
         C         C         0.57559   0.42145   0.25615   0.198667  
         C         C         0.57674   0.15327   0.24952   0.193951  
         C         C         0.84543   0.42494   0.26162   0.203488  
         C         C         0.44376   0.61845   0.23448   -0.186115           
         C         C         0.37848   0.81462   0.18440   -0.168494           
         C         C         0.17647   0.55447   0.24530   -0.170079           
         C         C         0.55317   0.37638   0.25593   -0.182819           
         C         C         0.62346   0.18246   0.30270   -0.169808           
         C         C         0.82314   0.44785   0.26870   -0.167606           
         C         C         0.42119   0.63973   0.22892   -0.079096           
         C         C         0.35562   0.76971   0.18052   -0.085202           
         C         C         0.22066   0.57604   0.24029   -0.081735           
         C         C         0.57574   0.35480   0.25745   -0.077287           
         C         C         0.64569   0.22783   0.31036   -0.082303           
         C         C         0.77867   0.42519   0.26975   -0.082119           
         H         H         0.32183   0.56115   0.26790   0.115003  
         H         H         0.44279   0.76595   0.30457   0.118913  
         H         H         0.23869   0.67543   0.22133   0.113610  
         H         H         0.67724   0.43873   0.25394   0.115615  
         H         H         0.55731   0.22953   0.18433   0.119675  
         H         H         0.76035   0.32280   0.26084   0.115334  
         H         H         0.36101   0.52224   0.27710   0.131154  
         H         H         0.48446   0.84691   0.31760   0.138956  
         H         H         0.16043   0.63845   0.23341   0.132810  
         H         H         0.63811   0.47823   0.25365   0.134942  
         H         H         0.51689   0.14842   0.16765   0.138044  
         H         H         0.83901   0.36139   0.25242   0.134597  
         H         H         0.47779   0.63479   0.22517   0.131670  
         H         H         0.36038   0.82762   0.14698   0.134717  
         H         H         0.15952   0.52081   0.25258   0.134658  
         H         H         0.51856   0.35871   0.25658   0.134142  
         H         H         0.64211   0.16978   0.33821   0.138663  
         H         H         0.84031   0.48268   0.27049   0.135724  
         H         H         0.43757   0.67252   0.21422   0.115243  
         H         H         0.31953   0.74766   0.14168   0.117357  
         H         H         0.23792   0.55891   0.24325   0.115270  
         H         H         0.55872   0.32038   0.26029   0.116131  
         H         H         0.68178   0.25052   0.35100   0.116806  
         H         H         0.76126   0.44256   0.27302   0.116790  
         C         C         0.57155   0.48819   0.24142   0.427990  
         C         C         0.50800   0.42648   0.26678   0.423624  
         H         H         0.56845   0.56677   0.23728   0.146907  
         O         O         0.60870   0.51277   0.22683   -0.372512           
         O         O         0.48286   0.39100   0.28675   -0.380620           
         C         C         0.50994   0.08211   0.26198   0.426925  
         C         C         0.57171   0.07757   0.20899   0.431158  
         H         H         0.43429   0.00270   0.29533   0.153542  
         O         O         0.48448   0.09536   0.27918   -0.378664           
         O         O         0.60684   0.08631   0.16972   -0.377278           
         C         C         0.91813   0.43042   0.27301   0.428175  
         C         C         0.91646   0.49061   0.23737   0.426807  
         H         H         0.00032   0.43405   0.27842   0.146340  
         O         O         0.90785   0.39598   0.29969   -0.386429           
         O         O         0.90378   0.51424   0.21704   -0.371940           
         C         C         0.42619   0.50873   0.26553   0.422506  
         C         C         0.49003   0.57087   0.24413   0.430285  
         H         H         0.42939   0.43054   0.27282   0.147333  
         O         O         0.38869   0.48346   0.27528   -0.370125           
         O         O         0.51544   0.60637   0.22473   -0.384761           
         C         C         0.49237   0.91343   0.21968   0.428564  
         C         C         0.43100   0.91873   0.27452   0.430756  
         H         H         0.56841   0.99312   0.18650   0.155725  
         O         O         0.51723   0.89941   0.19995   -0.376143           
         O         O         0.39596   0.91048   0.31408   -0.379491           
         C         C         0.08190   0.57296   0.23835   0.426828  
         C         C         0.08258   0.51112   0.26322   0.427063  
         H         H         -0.00085  0.56858   0.22779   0.146372  
         O         O         0.09284   0.60863   0.21979   -0.382859           
         O         O         0.09450   0.48616   0.27604   -0.373035           
         N         N         0.44779   0.55706   0.75183   -0.205158           
         N         N         0.44517   0.89199   0.74554   -0.217835           
         N         N         0.10968   0.55352   0.75164   -0.205422           
         N         N         0.55568   0.44804   0.75051   -0.205210           
         N         N         0.55006   0.10847   0.73803   -0.220962           
         N         N         0.89165   0.44557   0.75655   -0.202182           
         C         C         0.54153   0.54159   0.74107   -0.072645           
         C         C         0.45938   0.00355   0.77719   -0.071576           
         C         C         0.00096   0.46080   0.76728   -0.073906           
         C         C         0.46232   0.46417   0.76488   -0.072599           
         C         C         0.53569   0.99752   0.71095   -0.075747           
         C         C         0.00043   0.53819   0.74246   -0.075224           
         C         C         0.53936   0.50237   0.74442   -0.062219           
         C         C         0.49727   0.03931   0.75816   -0.064735           
         C         C         0.96318   0.46210   0.76002   -0.047755           
         C         C         0.46448   0.50336   0.76149   -0.061942           
         C         C         0.49779   0.96178   0.72955   -0.063771           
         C         C         0.03820   0.53686   0.74970   -0.048095           
         C         C         0.50129   0.46517   0.75605   -0.050517           
         C         C         0.53395   0.03629   0.72574   -0.051762           
         C         C         0.96294   0.49932   0.74786   -0.062091           
         C         C         0.50251   0.54050   0.74904   -0.048000           
         C         C         0.46105   0.96464   0.76180   -0.051861           
         C         C         0.03855   0.49974   0.76216   -0.064337           
         C         C         0.35407   0.70651   0.72218   0.372536  
         C         C         0.29157   0.64368   0.72861   0.376765  
         C         C         0.35549   0.64565   0.73540   0.376097  
         C         C         0.64530   0.29480   0.76980   0.372024  
         C         C         0.70921   0.35738   0.76979   0.373242  
         C         C         0.64630   0.35737   0.76200   0.377671  
         N         N         0.31077   0.68554   0.71932   -0.412344           
         N         N         0.31234   0.62206   0.73497   -0.412561           
         N         N         0.37791   0.68806   0.73020   -0.408780           
         N         N         0.68873   0.31505   0.77579   -0.412423           
         N         N         0.68953   0.38008   0.76340   -0.411385           
         N         N         0.62264   0.31453   0.76361   -0.410402           
         C         C         0.37726   0.75363   0.72146   -0.005094           
         C         C         0.24481   0.62043   0.73548   -0.008387           
         C         C         0.37959   0.62335   0.74271   -0.007202           
         C         C         0.62063   0.24715   0.76583   -0.005656           
         C         C         0.75622   0.38012   0.76725   -0.006676           
         C         C         0.62312   0.38077   0.75788   -0.010761           
         C         C         0.35718   0.57758   0.73480   -0.081043           
         C         C         0.42377   0.78227   0.76566   -0.074724           
         C         C         0.22200   0.64245   0.73947   -0.079264           
         C         C         0.64464   0.42400   0.74563   -0.078392           
         C         C         0.57403   0.21892   0.71646   -0.076397           
         C         C         0.77912   0.35907   0.77729   -0.078170           
         C         C         0.37915   0.55543   0.73585   -0.169172           
         C         C         0.44635   0.82787   0.77535   -0.184905           
         C         C         0.17792   0.62097   0.74605   -0.185529           
         C         C         0.62297   0.44643   0.74350   -0.170277           
         C         C         0.55045   0.17308   0.70489   -0.178749           
         C         C         0.82339   0.38017   0.77333   -0.187347           
         C         C         0.42488   0.57938   0.74806   0.199703  
         C         C         0.42235   0.84543   0.73782   0.194446  
         C         C         0.15513   0.57591   0.74595   0.204562  
         C         C         0.57853   0.42558   0.75378   0.204351  
         C         C         0.57355   0.15507   0.74630   0.194629  
         C         C         0.84608   0.42356   0.76075   0.201767  
         C         C         0.44781   0.62564   0.75865   -0.182599           
         C         C         0.37565   0.81670   0.69030   -0.167662           
         C         C         0.17778   0.55356   0.74272   -0.168971           
         C         C         0.55665   0.38212   0.76590   -0.188157           
         C         C         0.62026   0.18340   0.79913   -0.168673           
         C         C         0.82333   0.44500   0.75129   -0.167436           
         C         C         0.42512   0.64689   0.75409   -0.073361           
         C         C         0.35360   0.77145   0.68371   -0.082967           
         C         C         0.22205   0.57597   0.73855   -0.078445           
         C         C         0.57893   0.36037   0.76857   -0.073669           
         C         C         0.64332   0.22873   0.80675   -0.084829           
         C         C         0.77903   0.42326   0.75444   -0.081305           
         H         H         0.32193   0.55931   0.72681   0.116077  
         H         H         0.44202   0.76854   0.79629   0.119062  
         H         H         0.23937   0.67691   0.73713   0.114285  
         H         H         0.67883   0.43984   0.73644   0.114629  
         H         H         0.55634   0.23290   0.68299   0.120027  
         H         H         0.76176   0.32589   0.78937   0.112233  
         H         H         0.36116   0.52008   0.72949   0.135793  
         H         H         0.48226   0.84949   0.81094   0.138077  
         H         H         0.16117   0.63884   0.74952   0.133754  
         H         H         0.64019   0.47958   0.73239   0.131659  
         H         H         0.51450   0.15156   0.66427   0.138362  
         H         H         0.84045   0.36339   0.78150   0.132815  
         H         H         0.48295   0.64443   0.76805   0.134806  
         H         H         0.35690   0.82977   0.65917   0.134918  
         H         H         0.16094   0.51934   0.74595   0.133805  
         H         H         0.52260   0.36572   0.77462   0.132835  
         H         H         0.63834   0.17014   0.83436   0.134858  
         H         H         0.84012   0.47812   0.74007   0.131629  
         H         H         0.44257   0.68220   0.75864   0.115360  
         H         H         0.31754   0.74915   0.64794   0.117017  
         H         H         0.23967   0.55903   0.73845   0.114671  
         H         H         0.56226   0.32721   0.78081   0.113654  
         H         H         0.67942   0.25069   0.84657   0.116774  
         H         H         0.76134   0.43954   0.74549   0.115364  
         C         C         0.57443   0.49224   0.73849   0.427500  
         C         C         0.51087   0.43056   0.76360   0.428950  
         H         H         0.57129   0.57059   0.73238   0.146979  
         O         O         0.61168   0.51697   0.72518   -0.372309           
         O         O         0.48554   0.39509   0.78337   -0.382741           
         C         C         0.50634   0.08465   0.76267   0.429153  
         C         C         0.56755   0.07921   0.70659   0.430081  
         H         H         0.43081   0.00581   0.80194   0.156928  
         O         O         0.48131   0.09843   0.78080   -0.375726           
         O         O         0.60239   0.08719   0.66504   -0.380763           
         C         C         0.91858   0.42797   0.77015   0.426255  
         C         C         0.91776   0.48950   0.74278   0.426324  
         H         H         0.00104   0.43173   0.77659   0.146759  
         O         O         0.90776   0.39279   0.79227   -0.382759           
         O         O         0.90572   0.51423   0.72844   -0.371676           
         C         C         0.42940   0.51344   0.76791   0.425271  
         C         C         0.49259   0.57463   0.73874   0.428870  
         H         H         0.43269   0.43512   0.77406   0.146624  
         O         O         0.39247   0.48921   0.78505   -0.370789           
         O         O         0.51748   0.60981   0.71670   -0.385486           
         C         C         0.48890   0.91631   0.72232   0.427611  
         C         C         0.42734   0.92113   0.77786   0.431382  
         H         H         0.56430   0.99529   0.68638   0.152966  
         O         O         0.51428   0.90293   0.70236   -0.378370           
         O         O         0.39220   0.91247   0.81683   -0.376209           
         C         C         0.08256   0.57083   0.73804   0.429239  
         C         C         0.08378   0.50960   0.76596   0.428232  
         H         H         0.00026   0.56714   0.73236   0.149356  
         O         O         0.09298   0.60572   0.71422   -0.386636           
         O         O         0.09606   0.48495   0.77909   -0.372132 

