
##########################################################################
#               Crystallographic Information Format file
#               Produced by PyCifRW module
#
#  This is a CIF file.  CIF has been adopted by the International
#  Union of Crystallography as the standard for data archiving and
#  transmission.
#
#  For information on this file format, follow the CIF links at
#  http://www.iucr.org
##########################################################################

data_image0

_cell_length_a                          37.7859
_cell_length_b                          37.5321
_cell_length_c                          10.9973
_cell_angle_alpha                       90.5359
_cell_angle_beta                        90.7156
_cell_angle_gamma                       120.443
_symmetry_space_group_name_H-M          'P 1'
_space_group_name_Hall                  'P 1'
loop_
  _atom_site_type_symbol
  _atom_site_label
  _atom_site_fract_x
  _atom_site_fract_y
  _atom_site_fract_z
  _atom_site_charge
         C         C         0.70820   0.36110   0.14089   0.145013  
         C         C         0.68052   0.37580   0.14366   -0.180396           
         C         C         0.75125   0.38904   0.14417   -0.113924           
         C         C         0.78841   0.41198   0.13863   -0.103009           
         C         C         0.83141   0.43749   0.12518   0.109296  
         C         C         0.84784   0.47520   0.06143   -0.151661           
         C         C         0.88943   0.50043   0.03788   -0.046542           
         C         C         0.91654   0.48754   0.08340   0.262274  
         C         C         0.90069   0.44923   0.14486   -0.091669           
         C         C         0.85845   0.42483   0.16565   -0.162271           
         C         C         0.90528   0.53928   0.96069   0.273251  
         C         C         0.86989   0.54493   0.91354   -0.434309           
         C         C         0.92675   0.53427   0.84868   -0.444471           
         C         C         0.93567   0.57872   0.03396   -0.438497           
         C         C         0.92750   0.43378   0.17827   0.086135  
         N         N         0.96680   0.45489   0.16137   -0.254487           
         C         C         0.99109   0.43557   0.18739   -0.052501           
         O         O         0.95713   0.51100   0.06711   -0.393916           
         H         H         0.69219   0.40879   0.15292   0.124561  
         H         H         0.82612   0.48377   0.02743   0.120444  
         H         H         0.84674   0.39560   0.21211   0.116387  
         H         H         0.84759   0.51836   0.85758   0.124471  
         H         H         0.88255   0.57234   0.85622   0.123187  
         H         H         0.85351   0.54978   0.98780   0.116325  
         H         H         0.90534   0.50642   0.79631   0.109031  
         H         H         0.95368   0.53218   0.87427   0.136280  
         H         H         0.93681   0.56082   0.78907   0.121725  
         H         H         0.96126   0.57637   0.07264   0.138340  
         H         H         0.92008   0.58472   0.10807   0.115592  
         H         H         0.94835   0.60538   0.97351   0.122004  
         H         H         0.91255   0.40228   0.21447   0.072839  
         H         H         0.01825   0.45017   0.12975   0.086308  
         H         H         0.97374   0.40225   0.16403   0.071731  
         H         H         0.97045   0.49520   0.10373   0.294191  
         C         C         0.63784   0.34817   0.13222   0.143542  
         C         C         0.62296   0.30546   0.12055   -0.179876           
         C         C         0.61037   0.36351   0.12827   -0.112097           
         C         C         0.58744   0.37749   0.11971   -0.105669           
         C         C         0.56252   0.39557   0.10787   0.109694  
         C         C         0.52396   0.37464   0.04518   -0.147848           
         C         C         0.49886   0.39151   0.02787   -0.044436           
         C         C         0.51348   0.43207   0.07569   0.256519  
         C         C         0.55221   0.45385   0.13824   -0.093559           
         C         C         0.57610   0.43530   0.15441   -0.159510           
         C         C         0.45794   0.36851   0.95649   0.271096  
         C         C         0.44995   0.32652   0.90685   -0.437134           
         C         C         0.45958   0.39461   0.84663   -0.438900           
         C         C         0.42145   0.36053   0.03716   -0.438299           
         C         C         0.56777   0.49557   0.18257   0.084172  
         N         N         0.54698   0.51429   0.17128   -0.251667           
         C         C         0.56558   0.55657   0.21743   -0.058203           
         O         O         0.49091   0.45021   0.06180   -0.394169           
         H         H         0.59012   0.28398   0.11183   0.123596  
         H         H         0.51423   0.34400   0.00836   0.120103  
         H         H         0.60537   0.45207   0.20349   0.116186  
         H         H         0.44749   0.30570   0.98004   0.118124  
         H         H         0.47416   0.33012   0.84512   0.123481  
         H         H         0.42080   0.31137   0.85502   0.123586  
         H         H         0.48544   0.40090   0.78881   0.110909  
         H         H         0.46254   0.42403   0.87490   0.138277  
         H         H         0.43124   0.37743   0.79171   0.121188  
         H         H         0.42531   0.38927   0.07617   0.140482  
         H         H         0.41764   0.33965   0.11154   0.114572  
         H         H         0.39307   0.34580   0.98145   0.122125  
         H         H         0.59862   0.51121   0.22532   0.074539  
         H         H         0.55372   0.57272   0.16251   0.084146  
         H         H         0.59929   0.57313   0.20918   0.071622  
         H         H         0.50715   0.47902   0.10393   0.290614  
         C         C         0.65031   0.29033   0.11842   0.144200  
         C         C         0.69285   0.31827   0.12894   -0.180045           
         C         C         0.63466   0.24732   0.10263   -0.112486           
         C         C         0.61980   0.21019   0.08553   -0.104980           
         C         C         0.60101   0.16684   0.06849   0.108583  
         C         C         0.62158   0.14880   0.00966   -0.149993           
         C         C         0.60487   0.10635   0.99330   -0.049139           
         C         C         0.56517   0.08026   0.04127   0.259703  
         C         C         0.54309   0.09761   0.09629   -0.095464           
         C         C         0.56123   0.14064   0.10915   -0.163046           
         C         C         0.62839   0.08837   0.92877   0.272876  
         C         C         0.66782   0.12261   0.87090   -0.436597           
         C         C         0.60168   0.05807   0.82548   -0.441617           
         C         C         0.64062   0.06545   0.02104   -0.438413           
         C         C         0.50217   0.07101   0.14072   0.083850  
         N         N         0.48478   0.03100   0.13781   -0.250646           
         C         C         0.44318   0.00660   0.18187   -0.055206           
         O         O         0.54828   0.03910   0.03640   -0.389665           
         H         H         0.71406   0.30678   0.12613   0.124791  
         H         H         0.65204   0.16986   0.97620   0.121583  
         H         H         0.54453   0.15366   0.15307   0.115863  
         H         H         0.68988   0.14449   0.93879   0.117192  
         H         H         0.66105   0.13998   0.80380   0.124231  
         H         H         0.68298   0.10832   0.82323   0.122591  
         H         H         0.59190   0.07349   0.76048   0.113266  
         H         H         0.57447   0.03086   0.85974   0.137750  
         H         H         0.61982   0.04753   0.77587   0.123583  
         H         H         0.61360   0.04001   0.06319   0.136988  
         H         H         0.66100   0.08668   0.09300   0.116466  
         H         H         0.65708   0.05238   0.97408   0.122889  
         H         H         0.48605   0.08627   0.17682   0.073359  
         H         H         0.42730   0.97800   0.12662   0.085104  
         H         H         0.42624   0.02318   0.17043   0.069274  
         H         H         0.51996   0.02664   0.07709   0.290779  
         C         C         0.36084   0.70671   0.30744   0.143720  
         C         C         0.37613   0.67941   0.30570   -0.180015           
         C         C         0.38796   0.75013   0.30800   -0.111622           
         C         C         0.41018   0.78762   0.31739   -0.103370           
         C         C         0.43624   0.83058   0.34010   0.110372  
         C         C         0.47459   0.84515   0.40131   -0.148479           
         C         C         0.50055   0.88613   0.43760   -0.046457           
         C         C         0.48763   0.91478   0.40885   0.259137  
         C         C         0.44967   0.90115   0.34476   -0.091851           
         C         C         0.42438   0.85928   0.31141   -0.162444           
         C         C         0.53980   0.89933   0.51316   0.271806  
         C         C         0.54852   0.86367   0.52767   -0.434551           
         C         C         0.53331   0.91217   0.64115   -0.439541           
         C         C         0.57811   0.93553   0.45484   -0.439780           
         C         C         0.43615   0.93004   0.31731   0.084902  
         N         N         0.45805   0.96909   0.34550   -0.256123           
         C         C         0.44129   0.99560   0.31724   -0.055255           
         O         O         0.51090   0.95470   0.44249   -0.393930           
         H         H         0.40897   0.69155   0.30016   0.124229  
         H         H         0.48305   0.82224   0.42276   0.115235  
         H         H         0.39525   0.84923   0.26417   0.115999  
         H         H         0.55277   0.85254   0.43932   0.117705  
         H         H         0.52406   0.83740   0.57588   0.124640  
         H         H         0.57706   0.87492   0.58123   0.124293  
         H         H         0.56055   0.92138   0.69896   0.119992  
         H         H         0.50698   0.88614   0.68425   0.113233  
         H         H         0.52795   0.93823   0.63797   0.136970  
         H         H         0.57383   0.96161   0.43436   0.139204  
         H         H         0.58563   0.92513   0.37046   0.114952  
         H         H         0.60451   0.94653   0.51800   0.120914  
         H         H         0.40587   0.91709   0.27191   0.072667  
         H         H         0.45853   0.02424   0.37152   0.088570  
         H         H         0.40887   0.98070   0.34347   0.074057  
         H         H         0.49607   0.96966   0.41082   0.295348  
         C         C         0.34928   0.63646   0.31590   0.145514  
         C         C         0.30678   0.62089   0.32461   -0.179329           
         C         C         0.36511   0.60941   0.32564   -0.113782           
         C         C         0.37921   0.58687   0.34346   -0.103135           
         C         C         0.39602   0.56158   0.37112   0.109501  
         C         C         0.37345   0.52532   0.44044   -0.152077           
         C         C         0.38865   0.49998   0.47591   -0.046404           
         C         C         0.42889   0.51137   0.43851   0.259544  
         C         C         0.45274   0.54843   0.37253   -0.091108           
         C         C         0.43596   0.57286   0.33871   -0.161466           
         C         C         0.36389   0.46185   0.55424   0.272668  
         C         C         0.32369   0.45873   0.59598   -0.435848           
         C         C         0.38913   0.46545   0.67005   -0.444818           
         C         C         0.35295   0.42181   0.48241   -0.436221           
         C         C         0.49508   0.56237   0.34592   0.086456  
         N         N         0.51227   0.54110   0.37455   -0.256404           
         C         C         0.55601   0.55921   0.35196   -0.055325           
         O         O         0.44464   0.48737   0.46612   -0.391249           
         H         H         0.28599   0.58788   0.33405   0.123749  
         H         H         0.34297   0.51785   0.46788   0.120537  
         H         H         0.45442   0.60105   0.28842   0.116047  
         H         H         0.30318   0.45505   0.51915   0.115987  
         H         H         0.32976   0.48607   0.65026   0.126072  
         H         H         0.30727   0.43158   0.65349   0.123281  
         H         H         0.39660   0.49364   0.72141   0.109718  
         H         H         0.41767   0.46606   0.64967   0.139146  
         H         H         0.37087   0.43900   0.72831   0.120365  
         H         H         0.38034   0.42238   0.44824   0.136430  
         H         H         0.33226   0.41698   0.40507   0.115738  
         H         H         0.33716   0.39519   0.54230   0.122096  
         H         H         0.51255   0.59276   0.30314   0.072443  
         H         H         0.56752   0.54304   0.40823   0.086360  
         H         H         0.57314   0.59217   0.37949   0.073824  
         H         H         0.47423   0.50203   0.43450   0.294506  
         C         C         0.29109   0.64787   0.32568   0.144350  
         C         C         0.31825   0.69070   0.31657   -0.179509           
         C         C         0.24850   0.63184   0.34172   -0.111967           
         C         C         0.21196   0.61720   0.36081   -0.104361           
         C         C         0.16970   0.59998   0.38485   0.107550  
         C         C         0.15519   0.62384   0.44292   -0.141691           
         C         C         0.11411   0.60947   0.46901   -0.047497           
         C         C         0.08545   0.56767   0.43583   0.256540  
         C         C         0.09940   0.54268   0.37847   -0.092532           
         C         C         0.14106   0.55895   0.35360   -0.160435           
         C         C         0.10368   0.63936   0.53519   0.270729  
         C         C         0.12843   0.68305   0.48093   -0.438519           
         C         C         0.11659   0.64167   0.67024   -0.436929           
         C         C         0.05798   0.62683   0.52835   -0.431839           
         C         C         0.07068   0.50016   0.34449   0.082453  
         N         N         0.03147   0.48308   0.36078   -0.253396           
         C         C         0.00518   0.44018   0.32176   -0.055917           
         O         O         0.04522   0.55104   0.45561   -0.390614           
         H         H         0.30646   0.71173   0.31971   0.124522  
         H         H         0.17804   0.65543   0.46835   0.114624  
         H         H         0.15098   0.53953   0.30919   0.115852  
         H         H         0.16164   0.69729   0.49633   0.117421  
         H         H         0.11917   0.70345   0.52430   0.122558  
         H         H         0.12260   0.68228   0.38261   0.122988  
         H         H         0.14921   0.65135   0.68014   0.120249  
         H         H         0.09876   0.61158   0.71371   0.123905  
         H         H         0.11142   0.66403   0.72043   0.121268  
         H         H         0.03833   0.59830   0.57675   0.137350  
         H         H         0.04639   0.62227   0.43416   0.125518  
         H         H         0.05474   0.65171   0.56992   0.114095  
         H         H         0.08380   0.48264   0.30344   0.072491  
         H         H         0.97792   0.42621   0.37904   0.084698  
         H         H         0.02105   0.42253   0.33376   0.070784  
         H         H         0.03075   0.52116   0.42123   0.292433  
         C         C         0.71317   0.36362   0.68711   0.146091  
         C         C         0.68634   0.37933   0.68841   -0.179297           
         C         C         0.75613   0.39097   0.67947   -0.114300           
         C         C         0.79288   0.41399   0.66457   -0.103412           
         C         C         0.83502   0.43908   0.63788   0.110522  
         C         C         0.84952   0.47689   0.57589   -0.148343           
         C         C         0.89001   0.50184   0.54059   -0.043782           
         C         C         0.91797   0.48821   0.57027   0.260461  
         C         C         0.90416   0.45025   0.63223   -0.090145           
         C         C         0.86296   0.42621   0.66554   -0.163365           
         C         C         0.90388   0.54132   0.46801   0.271133  
         C         C         0.86816   0.54906   0.44283   -0.435402           
         C         C         0.91951   0.53616   0.34371   -0.442555           
         C         C         0.93820   0.57973   0.53705   -0.437658           
         C         C         0.93225   0.43590   0.65994   0.082213  
         N         N         0.97091   0.45734   0.63438   -0.256091           
         C         C         0.99708   0.44045   0.66503   -0.055910           
         O         O         0.95751   0.51098   0.53984   -0.391367           
         H         H         0.69880   0.41254   0.68809   0.124006  
         H         H         0.82718   0.48609   0.55449   0.115373  
         H         H         0.85280   0.39745   0.71342   0.116284  
         H         H         0.85552   0.55364   0.52709   0.116741  
         H         H         0.84315   0.52363   0.38968   0.126004  
         H         H         0.87954   0.57725   0.38950   0.124274  
         H         H         0.89486   0.50967   0.29341   0.110077  
         H         H         0.94587   0.53170   0.35327   0.138414  
         H         H         0.92896   0.56377   0.28918   0.120273  
         H         H         0.96406   0.57580   0.56321   0.137566  
         H         H         0.92627   0.58646   0.61932   0.115028  
         H         H         0.94985   0.60668   0.47794   0.122420  
         H         H         0.91911   0.40558   0.70341   0.076147  
         H         H         0.02562   0.45764   0.61437   0.084503  
         H         H         0.98228   0.40769   0.63661   0.073510  
         H         H         0.97201   0.49566   0.57152   0.292578  
         C         C         0.64347   0.35238   0.68629   0.144084  
         C         C         0.62758   0.30938   0.68539   -0.179128           
         C         C         0.61680   0.36857   0.67802   -0.111389           
         C         C         0.59463   0.38322   0.66371   -0.105009           
         C         C         0.56948   0.40062   0.64289   0.109030  
         C         C         0.53116   0.37768   0.58036   -0.147064           
         C         C         0.50527   0.39300   0.55232   -0.048221           
         C         C         0.51911   0.43456   0.58860   0.256001  
         C         C         0.55716   0.45804   0.65467   -0.094074           
         C         C         0.58192   0.44102   0.68058   -0.160639           
         C         C         0.46521   0.36550   0.47908   0.270563  
         C         C         0.44676   0.31967   0.51365   -0.435766           
         C         C         0.47605   0.37017   0.34307   -0.436855           
         C         C         0.43103   0.37613   0.49709   -0.433936           
         C         C         0.57047   0.49963   0.69651   0.081874  
         N         N         0.54854   0.51688   0.67923   -0.252949           
         C         C         0.56427   0.55865   0.72691   -0.056139           
         O         O         0.49666   0.45214   0.56320   -0.391447           
         H         H         0.59457   0.28842   0.68153   0.124327  
         H         H         0.52208   0.34630   0.55241   0.119387  
         H         H         0.61086   0.45938   0.73037   0.116838  
         H         H         0.44130   0.31557   0.61178   0.122635  
         H         H         0.46619   0.30696   0.48811   0.117502  
         H         H         0.41719   0.30107   0.46540   0.122136  
         H         H         0.49942   0.36188   0.32354   0.119862  
         H         H         0.48778   0.40206   0.31407   0.127069  
         H         H         0.44851   0.35004   0.28754   0.120805  
         H         H         0.43883   0.40598   0.45903   0.138572  
         H         H         0.42416   0.37685   0.59337   0.121102  
         H         H         0.40300   0.35209   0.45072   0.114163  
         H         H         0.60041   0.51624   0.74456   0.076578  
         H         H         0.55105   0.57346   0.67163   0.086821  
         H         H         0.59796   0.57705   0.71963   0.071785  
         H         H         0.51150   0.48111   0.60442   0.291600  
         C         C         0.65408   0.29322   0.68443   0.144492  
         C         C         0.69687   0.32049   0.68629   -0.181197           
         C         C         0.63728   0.24984   0.67355   -0.112249           
         C         C         0.62131   0.21263   0.65531   -0.103245           
         C         C         0.60227   0.16974   0.62857   0.110090  
         C         C         0.62215   0.15419   0.55446   -0.150031           
         C         C         0.60458   0.11281   0.51922   -0.048342           
         C         C         0.56455   0.08499   0.56183   0.255326  
         C         C         0.54361   0.09994   0.63485   -0.094751           
         C         C         0.56270   0.14200   0.66780   -0.160737           
         C         C         0.62704   0.09754   0.43787   0.272553  
         C         C         0.66792   0.13368   0.39353   -0.435698           
         C         C         0.60034   0.07514   0.32392   -0.443344           
         C         C         0.63648   0.06782   0.50884   -0.438146           
         C         C         0.50215   0.07201   0.67262   0.088292  
         N         N         0.48352   0.03274   0.64664   -0.252528           
         C         C         0.44112   0.00657   0.68255   -0.056593           
         O         O         0.54637   0.04450   0.53420   -0.392953           
         H         H         0.71748   0.30827   0.68384   0.124982  
         H         H         0.65254   0.17645   0.52300   0.117181  
         H         H         0.54638   0.15300   0.72329   0.116995  
         H         H         0.68955   0.15077   0.46880   0.117253  
         H         H         0.66310   0.15548   0.33993   0.127163  
         H         H         0.68256   0.12133   0.33451   0.123163  
         H         H         0.59310   0.09586   0.27396   0.112288  
         H         H         0.57161   0.04728   0.34664   0.136372  
         H         H         0.61731   0.06608   0.26314   0.121608  
         H         H         0.60836   0.04072   0.53996   0.138089  
         H         H         0.65647   0.08356   0.58835   0.116089  
         H         H         0.65243   0.05699   0.44953   0.122900  
         H         H         0.48680   0.08580   0.72247   0.074622  
         H         H         0.42687   0.97943   0.62104   0.086752  
         H         H         0.42379   0.02279   0.67282   0.073838  
         H         H         0.51792   0.03052   0.57497   0.289274  
         C         C         0.36124   0.70791   0.84159   0.145290  
         C         C         0.37509   0.67946   0.83953   -0.178853           
         C         C         0.38972   0.75105   0.84646   -0.114357           
         C         C         0.41351   0.78822   0.85768   -0.103839           
         C         C         0.43929   0.83156   0.87304   0.110338  
         C         C         0.47827   0.84898   0.93273   -0.152612           
         C         C         0.50398   0.89122   0.95445   -0.046244           
         C         C         0.49025   0.91784   0.91067   0.261751  
         C         C         0.45063   0.90107   0.85410   -0.090718           
         C         C         0.42573   0.85821   0.83558   -0.162224           
         C         C         0.54445   0.90866   0.02756   0.271433  
         C         C         0.55102   0.87396   0.07563   -0.434992           
         C         C         0.54308   0.93345   0.13861   -0.441570           
         C         C         0.58170   0.93720   0.94920   -0.437420           
         C         C         0.43472   0.92778   0.82352   0.085069  
         N         N         0.45649   0.96764   0.83775   -0.252654           
         C         C         0.43729   0.99221   0.81485   -0.053949           
         O         O         0.51411   0.95890   0.92505   -0.394241           
         H         H         0.40782   0.69064   0.83933   0.124189  
         H         H         0.48773   0.82768   0.96439   0.120437  
         H         H         0.39553   0.84561   0.79265   0.115615  
         H         H         0.55346   0.85547   0.00171   0.116380  
         H         H         0.52624   0.85312   0.13568   0.124199  
         H         H         0.57989   0.88791   0.12877   0.122641  
         H         H         0.51679   0.91380   0.19522   0.111451  
         H         H         0.54099   0.96030   0.11154   0.139005  
         H         H         0.57108   0.94451   0.19438   0.121713  
         H         H         0.57851   0.96208   0.90923   0.137819  
         H         H         0.58564   0.91956   0.87581   0.115087  
         H         H         0.60977   0.95137   0.00629   0.120829  
         H         H         0.40254   0.91252   0.79127   0.072793  
         H         H         0.45241   0.01964   0.87520   0.084987  
         H         H         0.40441   0.97493   0.83663   0.070619  
         H         H         0.49749   0.97181   0.89130   0.291587  
         C         C         0.34698   0.63659   0.84197   0.143500  
         C         C         0.30457   0.62223   0.84418   -0.180280           
         C         C         0.36187   0.60872   0.84945   -0.112456           
         C         C         0.37629   0.58633   0.86444   -0.103987           
         C         C         0.39336   0.56108   0.88884   0.109828  
         C         C         0.37025   0.52319   0.95031   -0.146951           
         C         C         0.38539   0.49748   0.98174   -0.046351           
         C         C         0.42624   0.51014   0.94720   0.260739  
         C         C         0.45060   0.54876   0.88888   -0.091507           
         C         C         0.43388   0.57362   0.85979   -0.162180           
         C         C         0.35938   0.45754   0.05185   0.273034  
         C         C         0.31836   0.45326   0.09076   -0.434211           
         C         C         0.38266   0.45791   0.16870   -0.443083           
         C         C         0.34972   0.41946   0.97190   -0.439447           
         C         C         0.49315   0.56343   0.86304   0.084453  
         N         N         0.51029   0.54159   0.88439   -0.256897           
         C         C         0.55404   0.56019   0.86160   -0.054361           
         O         O         0.44219   0.48596   0.96924   -0.393063           
         H         H         0.28268   0.58923   0.84611   0.124186  
         H         H         0.33922   0.51458   0.97490   0.115358  
         H         H         0.45276   0.60289   0.81489   0.115900  
         H         H         0.29890   0.45080   0.01233   0.116567  
         H         H         0.32320   0.47943   0.14881   0.126183  
         H         H         0.30124   0.42499   0.14342   0.123461  
         H         H         0.38892   0.48422   0.22781   0.111008  
         H         H         0.41174   0.45956   0.14891   0.138012  
         H         H         0.36363   0.42954   0.21909   0.120648  
         H         H         0.37785   0.42106   0.94006   0.137156  
         H         H         0.33058   0.41688   0.89257   0.115864  
         H         H         0.33274   0.39127   0.02509   0.122467  
         H         H         0.51078   0.59475   0.82616   0.073879  
         H         H         0.56574   0.54388   0.91634   0.085161  
         H         H         0.57080   0.59294   0.89106   0.071499  
         H         H         0.47205   0.50161   0.93937   0.294745  
         C         C         0.29029   0.65042   0.84736   0.144848  
         C         C         0.31875   0.69315   0.84509   -0.181691           
         C         C         0.24768   0.63567   0.85822   -0.113319           
         C         C         0.21111   0.62214   0.87365   -0.104228           
         C         C         0.16847   0.60433   0.89319   0.110879  
         C         C         0.15261   0.62583   0.95861   -0.146106           
         C         C         0.11108   0.60920   0.98328   -0.046563           
         C         C         0.08363   0.56820   0.94026   0.254276  
         C         C         0.09882   0.54603   0.87389   -0.091907           
         C         C         0.14087   0.56427   0.85093   -0.159076           
         C         C         0.09529   0.63359   0.05451   0.272064  
         C         C         0.13068   0.67653   0.09506   -0.437608           
         C         C         0.07345   0.61000   0.17011   -0.439793           
         C         C         0.06506   0.64004   0.97464   -0.437547           
         C         C         0.07141   0.50418   0.83157   0.084740  
         N         N         0.03213   0.48540   0.84831   -0.255888           
         C         C         0.00744   0.44310   0.80202   -0.058496           
         O         O         0.04323   0.55009   0.96195   -0.394254           
         H         H         0.30787   0.71494   0.84842   0.124618  
         H         H         0.17462   0.65690   0.99081   0.119726  
         H         H         0.15190   0.54694   0.79996   0.115701  
         H         H         0.14737   0.69559   0.01739   0.117812  
         H         H         0.15274   0.67444   0.15629   0.124887  
         H         H         0.11794   0.69289   0.14468   0.123277  
         H         H         0.09419   0.60442   0.22653   0.111228  
         H         H         0.04584   0.58032   0.14848   0.138954  
         H         H         0.06431   0.62864   0.22432   0.121413  
         H         H         0.03881   0.61064   0.94272   0.138984  
         H         H         0.08048   0.65873   0.89527   0.114338  
         H         H         0.05330   0.65656   0.02814   0.121842  
         H         H         0.08560   0.48865   0.78451   0.073966  
         H         H         0.97874   0.42786   0.85265   0.085704  
         H         H         0.02345   0.42576   0.81721   0.073651  
         H         H         0.02947   0.52122   0.92086   0.292437 

