
##########################################################################
#               Crystallographic Information Format file
#               Produced by PyCifRW module
#
#  This is a CIF file.  CIF has been adopted by the International
#  Union of Crystallography as the standard for data archiving and
#  transmission.
#
#  For information on this file format, follow the CIF links at
#  http://www.iucr.org
##########################################################################

data_image0

_cell_length_a                          29.2385
_cell_length_b                          29.1961
_cell_length_c                          8.0624
_cell_angle_alpha                       91.3024
_cell_angle_beta                        116.186
_cell_angle_gamma                       120.315
_symmetry_space_group_name_H-M          'P 1'
_space_group_name_Hall                  'P 1'
loop_
  _atom_site_type_symbol
  _atom_site_label
  _atom_site_fract_x
  _atom_site_fract_y
  _atom_site_fract_z
  _atom_site_charge
         N         N         0.35636   0.55471   0.98977   -0.296337           
         N         N         0.58604   0.40218   0.00901   -0.294023           
         N         N         0.44746   0.80795   0.98926   -0.299343           
         N         N         0.61002   0.19447   0.03365   -0.304155           
         N         N         0.20076   0.64872   0.02460   -0.296852           
         N         N         0.81043   0.41868   0.97301   -0.295028           
         C         C         0.30426   0.61574   0.00954   -0.148882           
         C         C         0.67513   0.38886   0.98619   -0.149202           
         C         C         0.39060   0.69431   0.00511   -0.139354           
         C         C         0.61723   0.29578   0.00372   -0.144739           
         C         C         0.31210   0.70232   0.00556   -0.131663           
         C         C         0.70988   0.32868   0.99218   -0.126292           
         C         C         0.38452   0.60702   0.00196   0.074166  
         C         C         0.57896   0.35454   -0.00183  0.077395  
         C         C         0.39702   0.78313   0.99402   0.080609  
         C         C         0.65240   0.23306   0.00799   0.081561  
         C         C         0.22295   0.62112   0.01073   0.072910  
         C         C         0.77112   0.42555   0.98142   0.076710  
         C         C         0.38200   0.52522   0.98600   0.202748  
         C         C         0.54185   0.40968   0.00627   0.206353  
         C         C         0.47619   0.86348   0.98727   0.199089  
         C         C         0.60109   0.14236   0.03151   0.200989  
         C         C         0.14389   0.62188   0.01609   0.211328  
         C         C         0.86216   0.46210   0.97326   0.209486  
         C         C         0.43778   0.54725   0.98709   -0.230028           
         C         C         0.48843   0.36981   0.01013   -0.175395           
         C         C         0.45610   0.89788   -0.00068  -0.231655           
         C         C         0.63955   0.12780   0.02237   -0.178846           
         C         C         0.11200   0.56778   0.03180   -0.230940           
         C         C         0.87137   0.51268   0.94007   -0.182123           
         C         C         0.45829   0.51367   0.98652   0.091452  
         C         C         0.44692   0.38128   0.00314   -0.116498           
         C         C         0.49029   0.95294   0.00533   0.086483  
         C         C         0.62468   0.07395   0.01039   -0.120338           
         C         C         0.05535   0.54575   0.01670   0.097150  
         C         C         0.92484   0.55297   0.94277   -0.122017           
         C         C         0.42504   0.45794   0.98935   0.011342  
         C         C         0.45853   0.43379   0.99360   0.009275  
         C         C         0.54536   0.97538   0.00116   0.008359  
         C         C         0.57147   0.03379   0.01142   0.012703  
         C         C         0.02841   0.57620   0.98335   0.014603  
         C         C         0.96967   0.54281   0.97592   0.017717  
         C         C         0.37004   0.43601   0.98942   -0.123684           
         C         C         0.51211   0.47410   0.99188   0.082467  
         C         C         0.56521   0.94152   0.98696   -0.126971           
         C         C         0.53318   0.04807   0.02340   0.082944  
         C         C         0.05972   0.62973   0.96852   -0.129253           
         C         C         0.96035   0.49208   0.00684   0.091765  
         C         C         0.34872   0.46946   0.98524   -0.153816           
         C         C         0.55306   0.46232   -0.00259  -0.205298           
         C         C         0.53043   0.88602   0.97926   -0.149942           
         C         C         0.54773   0.10163   0.03312   -0.209677           
         C         C         0.11735   0.65227   0.98782   -0.154326           
         C         C         0.90744   0.45225   0.00546   -0.203279           
         C         C         0.35943   0.63907   0.00709   0.054487  
         C         C         0.62436   0.34666   0.99574   0.054651  
         C         C         0.36679   0.72611   0.00243   0.064377  
         C         C         0.65984   0.28633   0.00198   0.062535  
         C         C         0.28068   0.64713   0.01084   0.065497  
         C         C         0.71792   0.38029   0.98481   0.064732  
         H         H         0.42909   0.63117   0.00815   0.061137  
         H         H         0.53884   0.31691   0.98972   0.061236  
         H         H         0.37317   0.80290   0.99112   0.063008  
         H         H         0.68488   0.22863   0.98656   0.066505  
         H         H         0.19933   0.57621   0.99343   0.058991  
         H         H         0.77577   0.46547   0.99162   0.065163  
         H         H         0.67980   0.42798   0.97683   0.111547  
         H         H         0.28056   0.57289   0.01231   0.110236  
         C         C         0.47863   0.99751   0.01858   -0.257878           
         H         H         0.34463   0.39381   0.99530   0.111166  
         H         H         0.30630   0.45394   0.98588   0.118177  
         H         H         0.47978   0.32955   0.02207   0.107542  
         H         H         0.40657   0.35001   0.00843   0.106664  
         H         H         0.59395   0.49242   0.99282   0.122267  
         H         H         0.43392   0.98564   0.89295   0.118224  
         H         H         0.57891   0.26281   0.01394   0.109195  
         H         H         0.43297   0.71319   0.00103   0.109361  
         C         C         0.01369   0.49020   0.03288   -0.260353           
         H         H         0.41502   0.88181   0.00873   0.114698  
         H         H         0.60663   0.95798   0.97918   0.110476  
         H         H         0.54403   0.85822   0.96678   0.121116  
         H         H         0.68052   0.15862   0.01956   0.109012  
         H         H         0.65332   0.06262   -0.00332  0.110324  
         H         H         0.51931   0.11394   0.04273   0.127040  
         H         H         0.74366   0.32284   0.99053   0.110404  
         H         H         0.29241   0.72581   0.00156   0.110484  
         C         C         0.51566   0.52749   0.98712   -0.259266           
         H         H         0.13207   0.54389   0.05889   0.113382  
         H         H         0.03958   0.65351   0.94299   0.106836  
         H         H         0.14320   0.69366   0.97668   0.112754  
         H         H         0.83614   0.52031   0.91011   0.105205  
         H         H         0.93128   0.59153   0.91578   0.105535  
         H         H         0.89881   0.41279   0.02841   0.121910  
         H         H         0.51446   0.53828   0.85605   0.117581  
         H         H         0.55877   0.56315   0.11458   0.117767  
         H         H         0.46426   0.58996   0.98635   0.116169  
         H         H         0.99735   0.45457   0.91966   0.116851  
         H         H         0.03787   0.48601   0.17533   0.113762  
         H         H         0.47756   0.00542   0.15042   0.119150  
         N         N         0.35682   0.54838   0.48624   -0.295674           
         N         N         0.58570   0.39535   0.50917   -0.291620           
         N         N         0.44662   0.80119   0.50063   -0.298733           
         N         N         0.60435   0.18496   0.52395   -0.304480           
         N         N         0.19893   0.63942   0.52446   -0.291682           
         N         N         0.80850   0.40865   0.47627   -0.294617           
         C         C         0.30314   0.60757   0.50552   -0.151009           
         C         C         0.67405   0.38108   0.49206   -0.148488           
         C         C         0.39049   0.68784   0.51126   -0.139387           
         C         C         0.61326   0.28688   0.49861   -0.146204           
         C         C         0.31040   0.69397   0.50807   -0.130615           
         C         C         0.70756   0.32011   0.49728   -0.130729           
         C         C         0.38571   0.60119   0.50541   0.074113  
         C         C         0.57644   0.34681   0.49142   0.072927  
         C         C         0.39497   0.77543   0.49824   0.080631  
         C         C         0.64928   0.22468   0.51041   0.077054  
         C         C         0.22088   0.61182   0.50767   0.071614  
         C         C         0.77014   0.41662   0.48732   0.080180  
         C         C         0.38288   0.51925   0.48480   0.203228  
         C         C         0.54196   0.40333   0.50631   0.205363  
         C         C         0.47453   0.85645   0.49695   0.200065  
         C         C         0.59605   0.13331   0.52607   0.199411  
         C         C         0.14227   0.61271   0.51746   0.209706  
         C         C         0.86031   0.45150   0.47503   0.210758  
         C         C         0.43758   0.54063   0.47963   -0.230300           
         C         C         0.48941   0.36390   0.51475   -0.178680           
         C         C         0.45450   0.89066   0.51184   -0.232318           
         C         C         0.63404   0.11860   0.51411   -0.175116           
         C         C         0.11148   0.55925   0.53882   -0.232601           
         C         C         0.86966   0.50217   0.44275   -0.175770           
         C         C         0.45883   0.50742   0.48448   0.089782  
         C         C         0.44865   0.37596   0.51072   -0.117482           
         C         C         0.48782   0.94540   0.51420   0.086340  
         C         C         0.62006   0.06527   0.50789   -0.117113           
         C         C         0.05484   0.53676   0.52488   0.090755  
         C         C         0.92325   0.54277   0.44720   -0.117951           
         C         C         0.42670   0.45242   0.49417   0.010726  
         C         C         0.46008   0.42821   0.49814   0.011152  
         C         C         0.54204   0.96765   0.50520   0.006524  
         C         C         0.56772   0.02578   0.51408   0.011379  
         C         C         0.02722   0.56663   0.48940   0.020918  
         C         C         0.96837   0.53292   0.48126   0.016956  
         C         C         0.37214   0.43082   0.49673   -0.124866           
         C         C         0.51288   0.46804   0.49184   0.080507  
         C         C         0.56175   0.93398   0.48742   -0.123180           
         C         C         0.52949   0.03998   0.52705   0.084873  
         C         C         0.05761   0.61967   0.47004   -0.123765           
         C         C         0.95884   0.48193   0.50965   0.088537  
         C         C         0.35071   0.46420   0.49123   -0.154267           
         C         C         0.55338   0.45590   0.49580   -0.206315           
         C         C         0.52775   0.87879   0.48325   -0.152408           
         C         C         0.54353   0.09326   0.53301   -0.209374           
         C         C         0.11485   0.64241   0.48633   -0.151507           
         C         C         0.90549   0.44158   0.50553   -0.211103           
         C         C         0.35931   0.63218   0.50821   0.052235  
         C         C         0.62187   0.33840   0.49418   0.053738  
         C         C         0.36552   0.71864   0.50745   0.063901  
         C         C         0.65653   0.27764   0.50220   0.061006  
         C         C         0.27895   0.63832   0.50906   0.062320  
         C         C         0.71656   0.37207   0.49099   0.069486  
         H         H         0.43174   0.62622   0.52127   0.062385  
         H         H         0.53424   0.30898   0.47152   0.062933  
         H         H         0.36936   0.79397   0.48563   0.065595  
         H         H         0.68448   0.22159   0.50381   0.067444  
         H         H         0.19694   0.56674   0.48761   0.060726  
         H         H         0.77580   0.45699   0.49952   0.061961  
         H         H         0.67951   0.42073   0.48788   0.110636  
         H         H         0.27975   0.56438   0.50491   0.109849  
         C         C         0.47528   0.98948   0.52378   -0.257606           
         H         H         0.34707   0.38896   0.50541   0.110489  
         H         H         0.30912   0.44924   0.49658   0.116841  
         H         H         0.48115   0.32382   0.52826   0.107347  
         H         H         0.40917   0.34567   0.52155   0.106886  
         H         H         0.59386   0.48551   0.48851   0.123908  
         H         H         0.43079   0.97665   0.39441   0.118779  
         H         H         0.57371   0.25352   0.50279   0.109623  
         H         H         0.43343   0.70773   0.51020   0.108776  
         C         C         0.01298   0.48078   0.53919   -0.258807           
         H         H         0.41439   0.87476   0.52659   0.114733  
         H         H         0.60250   0.95046   0.47567   0.109272  
         H         H         0.54108   0.85102   0.46827   0.120188  
         H         H         0.67343   0.14846   0.50226   0.107899  
         H         H         0.64849   0.05377   0.49345   0.109998  
         H         H         0.51530   0.10589   0.54201   0.126619  
         H         H         0.74145   0.31405   0.49804   0.109037  
         H         H         0.29027   0.71701   0.50477   0.111386  
         C         C         0.51594   0.52110   0.48390   -0.256304           
         H         H         0.13221   0.53595   0.56688   0.112191  
         H         H         0.03695   0.64299   0.44257   0.107419  
         H         H         0.13939   0.68342   0.47085   0.114891  
         H         H         0.83394   0.50924   0.41095   0.107181  
         H         H         0.92957   0.58138   0.42112   0.105278  
         H         H         0.89690   0.40201   0.52715   0.122394  
         H         H         0.51449   0.53128   0.35202   0.116623  
         H         H         0.55883   0.55738   0.60983   0.117401  
         H         H         0.46248   0.58229   0.46885   0.116456  
         H         H         0.99782   0.44558   0.42704   0.118377  
         H         H         0.03621   0.47627   0.68201   0.114389  
         H         H         0.47271   0.99773   0.65202   0.118674 

