
##########################################################################
#               Crystallographic Information Format file
#               Produced by PyCifRW module
#
#  This is a CIF file.  CIF has been adopted by the International
#  Union of Crystallography as the standard for data archiving and
#  transmission.
#
#  For information on this file format, follow the CIF links at
#  http://www.iucr.org
##########################################################################

data_image0

_cell_length_a                          35.3862
_cell_length_b                          36.691
_cell_length_c                          9.57039
_cell_angle_alpha                       99.2475
_cell_angle_beta                        105.018
_cell_angle_gamma                       116.18
_symmetry_space_group_name_H-M          'P 1'
_space_group_name_Hall                  'P 1'
loop_
  _atom_site_type_symbol
  _atom_site_label
  _atom_site_fract_x
  _atom_site_fract_y
  _atom_site_fract_z
  _atom_site_charge
         C         C         0.49029   0.53100   0.19551   -0.009503           
         C         C         0.47998   0.49617   0.25505   0.184768  
         C         C         0.50691   0.47747   0.26765   -0.240371           
         C         C         0.54435   0.49227   0.22219   -0.016727           
         C         C         0.55490   0.52734   0.16387   0.184692  
         C         C         0.52774   0.54580   0.14999   -0.248346           
         O         O         0.59236   0.54101   0.12431   -0.175777           
         C         C         0.60225   0.57511   0.05878   -0.179672           
         O         O         0.44198   0.48208   0.29117   -0.169675           
         C         C         0.43040   0.44651   0.34914   -0.179915           
         C         C         0.57100   0.47113   0.22853   0.086646  
         C         C         0.46178   0.55021   0.17753   0.080078  
         N         N         0.46584   0.57619   0.09760   -0.298029           
         N         N         0.56028   0.43685   0.26848   -0.286306           
         C         C         0.43718   0.59330   0.07236   0.192424  
         C         C         0.58749   0.41839   0.26652   0.211611  
         C         C         0.56567   0.37379   0.19868   -0.162600           
         C         C         0.59061   0.35428   0.17851   -0.123151           
         C         C         0.63839   0.37785   0.23108   0.058962  
         C         C         0.66010   0.42188   0.31012   -0.124281           
         C         C         0.63530   0.44198   0.32657   -0.185311           
         C         C         0.44890   0.62575   0.00317   -0.159209           
         C         C         0.42234   0.64433   0.96858   -0.132576           
         C         C         0.38257   0.63106   0.00094   0.062009  
         C         C         0.37083   0.59852   0.06999   -0.129913           
         C         C         0.39727   0.57989   0.10477   -0.165162           
         C         C         0.66380   0.35681   0.19774   0.066111  
         C         C         0.35384   0.65017   0.96320   0.050947  
         C         C         0.70521   0.37931   0.17943   -0.171825           
         C         C         0.29864   0.68753   0.89289   0.160468  
         C         C         0.49379   0.95472   0.97161   -0.014296           
         C         C         0.53775   0.98049   0.97179   0.189469  
         C         C         0.55312   0.02314   0.98028   -0.246487           
         C         C         0.52538   0.04108   0.98357   -0.004311           
         C         C         0.48045   0.01454   0.97349   0.185578  
         C         C         0.46561   0.97236   0.96986   -0.238863           
         O         O         0.45400   0.03316   0.97196   -0.176052           
         C         C         0.40627   0.00431   0.92521   -0.183350           
         O         O         0.56324   0.96116   0.96604   -0.175897           
         C         C         0.60723   0.98672   0.96220   -0.179848           
         C         C         0.54350   0.08658   0.00308   0.079139  
         C         C         0.47767   0.91107   0.97629   0.086886  
         N         N         0.44026   0.89069   -0.00156  -0.291732           
         N         N         0.58656   0.11189   0.04084   -0.269291           
         C         C         0.42202   0.84779   0.99261   0.193791  
         C         C         0.60392   0.15555   0.05952   0.199231  
         C         C         0.64609   0.18420   0.17844   -0.147033           
         C         C         0.66605   0.22791   0.20160   -0.116491           
         C         C         0.64554   0.24447   0.10540   0.072733  
         C         C         0.60313   0.21590   0.98782   -0.129077           
         C         C         0.58240   0.17194   0.96476   -0.181702           
         C         C         0.39245   0.83317   0.07103   -0.155268           
         C         C         0.36869   0.79006   0.05775   -0.135451           
         C         C         0.37230   0.75961   0.96082   0.063600  
         C         C         0.40355   0.77448   0.88853   -0.129387           
         C         C         0.42827   0.81776   0.90448   -0.173319           
         C         C         0.66725   0.29127   0.13026   -0.010397           
         C         C         0.34638   0.71313   0.93934   -0.038746           
         C         C         0.64578   0.31274   0.17387   -0.176015           
         C         C         0.30676   0.62637   0.92516   -0.171359           
         C         C         0.03595   0.52699   0.93419   -0.013230           
         C         C         0.01311   0.54540   0.99354   0.196417  
         C         C         0.97609   0.52048   0.02848   -0.240354           
         C         C         0.95994   0.47646   0.00445   -0.001096           
         C         C         0.98293   0.45835   0.94712   0.189601  
         C         C         0.02004   0.48328   0.91270   -0.208529           
         O         O         0.96926   0.41555   0.93092   -0.210262           
         C         C         0.94598   0.38829   0.77438   -0.181215           
         O         O         0.03026   0.58851   0.01384   -0.177687           
         C         C         0.01339   0.60936   0.09881   -0.183783           
         C         C         0.91980   0.44979   0.03403   0.085485  
         C         C         0.07644   0.55364   0.90679   0.084089  
         N         N         0.09883   0.53816   0.85715   -0.291230           
         N         N         0.89745   0.46521   0.08381   -0.286585           
         C         C         0.14146   0.56640   0.85778   0.195172  
         C         C         0.85634   0.43751   0.09413   0.195087  
         C         C         0.84422   0.45269   0.21018   -0.160665           
         C         C         0.80316   0.42705   0.22297   -0.124246           
         C         C         0.77178   0.38553   0.11912   0.069645  
         C         C         0.78331   0.37120   -0.00020  -0.122569           
         C         C         0.82479   0.39630   0.98809   -0.181562           
         C         C         0.15773   0.55185   0.75473   -0.157170           
         C         C         0.20159   0.57743   0.76044   -0.128549           
         C         C         0.23078   0.61821   0.86976   0.080702  
         C         C         0.21450   0.63260   0.97259   -0.125971           
         C         C         0.17082   0.60750   0.96709   -0.181492           
         C         C         0.72826   0.35929   0.13635   -0.022862           
         C         C         0.27932   0.64427   0.89268   -0.030920           
         C         C         0.70856   0.31460   0.11112   0.143842  
         C         C         0.37237   0.69324   0.97067   -0.171356           
         O         O         0.72768   0.29232   0.05569   -0.216892           
         C         C         0.76586   0.29447   0.16600   -0.031521           
         C         C         0.79524   0.28629   0.08589   0.103275  
         N         N         0.79745   0.24702   0.09007   -0.210972           
         C         C         0.84414   0.25479   0.13234   -0.051971           
         C         C         0.87083   0.29946   0.11939   -0.177917           
         C         C         0.84557   0.32153   0.16167   -0.204653           
         C         C         0.75918   0.20756   0.03882   0.596163  
         O         O         0.76973   0.17540   0.04098   -0.370013           
         C         C         0.75117   0.14621   0.12786   0.455724  
         C         C         0.69936   0.11944   0.06086   -0.485856           
         C         C         0.77197   0.11766   0.11684   -0.467837           
         C         C         0.76874   0.17382   0.29262   -0.489344           
         O         O         0.72056   0.20171   0.99393   -0.492933           
         O         O         0.26588   0.69756   0.83490   -0.186749           
         C         C         0.27242   0.73941   0.83575   -0.040210           
         C         C         0.22674   0.73102   0.72755   0.094976  
         C         C         0.18563   0.69743   0.75304   -0.199273           
         C         C         0.15314   0.71492   0.74126   -0.175193           
         C         C         0.18561   0.76332   0.81095   -0.052630           
         N         N         0.22276   0.76974   0.75665   -0.201766           
         C         C         0.24365   0.80267   0.70362   0.595452  
         O         O         0.23457   0.83444   0.74996   -0.335210           
         C         C         0.25200   0.87387   0.70608   0.454182  
         C         C         0.22772   0.86227   0.53512   -0.491069           
         C         C         0.30363   0.89700   0.75456   -0.493869           
         C         C         0.23840   0.90116   0.79638   -0.472848           
         O         O         0.26716   0.80353   0.62777   -0.524121           
         H         H         0.49997   0.45069   0.31195   0.125314  
         H         H         0.53412   0.57210   0.10340   0.123722  
         H         H         0.57325   0.56678   0.95688   0.097203  
         H         H         0.63085   0.57894   0.02571   0.119118  
         H         H         0.61179   0.60508   0.14213   0.100518  
         H         H         0.42153   0.41748   0.26247   0.101335  
         H         H         0.40083   0.44185   0.37715   0.119898  
         H         H         0.45819   0.45342   0.45251   0.100699  
         H         H         0.59948   0.48458   0.19039   0.074725  
         H         H         0.43747   0.54125   0.23473   0.077057  
         H         H         0.52881   0.35541   0.15516   0.116108  
         H         H         0.57266   0.32025   0.11635   0.105803  
         H         H         0.69700   0.44063   0.35943   0.104727  
         H         H         0.65266   0.47606   0.38752   0.110720  
         H         H         0.47902   0.63528   0.97485   0.117160  
         H         H         0.43151   0.66833   0.91080   0.109826  
         H         H         0.34098   0.58851   0.10023   0.108289  
         H         H         0.38700   0.55503   0.15846   0.113623  
         H         H         0.71912   0.41314   0.19112   0.109659  
         H         H         0.58709   0.04449   0.98651   0.124351  
         H         H         0.43207   0.95141   0.96800   0.122165  
         H         H         0.39823   0.98857   0.01073   0.093446  
         H         H         0.39324   0.97963   0.81550   0.108890  
         H         H         0.39040   0.02397   0.91283   0.115072  
         H         H         0.62123   0.96550   0.95367   0.115305  
         H         H         0.62950   0.01435   0.06687   0.101209  
         H         H         0.60464   0.99797   0.86220   0.102982  
         H         H         0.51948   0.09823   0.99068   0.073644  
         H         H         0.49900   0.89730   0.96403   0.075261  
         H         H         0.66178   0.17180   0.25591   0.123675  
         H         H         0.69722   0.24997   0.29923   0.092567  
         H         H         0.58724   0.22827   0.91075   0.109811  
         H         H         0.55056   0.14989   0.86910   0.109982  
         H         H         0.38862   0.85650   0.14269   0.119422  
         H         H         0.34675   0.78005   0.12186   0.116687  
         H         H         0.40638   0.75121   0.81232   0.107550  
         H         H         0.44973   0.82786   0.83881   0.111159  
         H         H         0.61461   0.29430   0.19203   0.109667  
         H         H         0.29069   0.59313   0.92264   0.110357  
         H         H         0.95817   0.53371   0.07448   0.120807  
         H         H         0.03809   0.46941   0.87064   0.137196  
         H         H         0.94250   0.35714   0.77521   0.105942  
         H         H         0.96520   0.40101   0.70305   0.103663  
         H         H         0.91214   0.38461   0.72694   0.097623  
         H         H         0.03274   0.64329   0.10937   0.108762  
         H         H         0.01902   0.60544   0.21273   0.109797  
         H         H         0.97705   0.59705   0.03852   0.106862  
         H         H         0.90964   0.41584   0.01121   0.068012  
         H         H         0.08757   0.58782   0.93392   0.067635  
         H         H         0.86831   0.48441   0.29236   0.118967  
         H         H         0.79549   0.43884   0.31739   0.109157  
         H         H         0.75874   0.34039   0.91334   0.099666  
         H         H         0.83180   0.38513   0.89076   0.104256  
         H         H         0.13514   0.52033   0.66969   0.119059  
         H         H         0.21340   0.56591   0.67873   0.114149  
         H         H         0.23779   0.66298   0.06313   0.104811  
         H         H         0.16026   0.61813   0.05476   0.103644  
         H         H         0.40900   0.71345   0.00849   0.108092  
         H         H         0.75351   0.27073   0.22423   0.071501  
         H         H         0.78629   0.32664   0.24967   0.068270  
         H         H         0.78121   0.28423   0.96625   0.060109  
         H         H         0.84499   0.22962   0.05659   0.088038  
         H         H         0.85687   0.25451   0.24986   0.069272  
         H         H         0.86893   0.29709   0.00162   0.090476  
         H         H         0.90679   0.31635   0.19334   0.092618  
         H         H         0.85205   0.34990   0.12550   0.103615  
         H         H         0.85514   0.33162   0.28617   0.095427  
         H         H         0.68802   0.09778   0.12701   0.126382  
         H         H         0.68709   0.10014   0.94194   0.133445  
         H         H         0.68392   0.13948   0.06503   0.153973  
         H         H         0.76021   0.09818   -0.00159  0.132469  
         H         H         0.76178   0.09589   0.18364   0.132052  
         H         H         0.80915   0.13683   0.16180   0.132720  
         H         H         0.75365   0.19414   0.30146   0.137177  
         H         H         0.80582   0.19406   0.33688   0.122616  
         H         H         0.75960   0.15343   0.36421   0.138126  
         H         H         0.29971   0.75653   0.79645   0.083640  
         H         H         0.28046   0.75845   0.95141   0.085779  
         H         H         0.22439   0.72148   0.60949   0.058958  
         H         H         0.17032   0.66566   0.67118   0.103261  
         H         H         0.19685   0.69462   0.86674   0.093908  
         H         H         0.13013   0.70222   0.80137   0.091281  
         H         H         0.13246   0.70711   0.62148   0.088984  
         H         H         0.19834   0.77322   0.93602   0.072522  
         H         H         0.17125   0.78262   0.77337   0.087924  
         H         H         0.23869   0.84443   0.46908   0.142451  
         H         H         0.23517   0.89162   0.50463   0.133542  
         H         H         0.19086   0.84315   0.50315   0.132446  
         H         H         0.31432   0.87729   0.69651   0.153704  
         H         H         0.32002   0.90510   0.87789   0.137448  
         H         H         0.31494   0.92691   0.72589   0.132026  
         H         H         0.24845   0.93122   0.76921   0.134758  
         H         H         0.25544   0.90898   0.91934   0.134392  
         H         H         0.20160   0.88436   0.76800   0.134536  
         C         C         0.49215   0.53734   0.69058   -0.009213           
         C         C         0.48179   0.50152   0.74468   0.185319  
         C         C         0.50761   0.48178   0.74599   -0.245844           
         C         C         0.54425   0.49688   0.69660   -0.014548           
         C         C         0.55609   0.53403   0.65037   0.183248  
         C         C         0.52962   0.55311   0.64532   -0.246726           
         O         O         0.59363   0.54866   0.61128   -0.173840           
         C         C         0.60455   0.58496   0.55746   -0.182181           
         O         O         0.44463   0.48708   0.78546   -0.166668           
         C         C         0.43509   0.45200   0.84603   -0.181657           
         C         C         0.56840   0.47373   0.68609   0.082315  
         C         C         0.46352   0.55649   0.67581   0.084074  
         N         N         0.46669   0.58214   0.59480   -0.299027           
         N         N         0.55341   0.43586   0.70038   -0.288237           
         C         C         0.43703   0.59816   0.56868   0.194247  
         C         C         0.57928   0.41632   0.69102   0.206213  
         C         C         0.55670   0.37266   0.60608   -0.159885           
         C         C         0.58118   0.35251   0.58740   -0.126592           
         C         C         0.62882   0.37450   0.65740   0.061672  
         C         C         0.65097   0.41755   0.74858   -0.126023           
         C         C         0.62686   0.43832   0.76456   -0.180621           
         C         C         0.44923   0.63288   0.51036   -0.158764           
         C         C         0.42138   0.65024   0.47618   -0.131653           
         C         C         0.37973   0.63341   0.49727   0.060613  
         C         C         0.36747   0.59840   0.55430   -0.129328           
         C         C         0.39514   0.58096   0.58866   -0.167824           
         C         C         0.65488   0.35330   0.63635   0.060690  
         C         C         0.34968   0.65139   0.46275   0.052436  
         C         C         0.69799   0.37627   0.63116   -0.173335           
         C         C         0.29230   0.68705   0.41758   0.156924  
         C         C         0.48625   0.95995   0.55375   -0.013776           
         C         C         0.53049   0.98430   0.55339   0.195096  
         C         C         0.54602   0.02561   0.54478   -0.241957           
         C         C         0.51787   0.04360   0.53128   -0.006116           
         C         C         0.47330   0.01872   0.52549   0.184328  
         C         C         0.45847   0.97814   0.53980   -0.212743           
         O         O         0.44408   0.03505   0.50828   -0.208378           
         C         C         0.41648   0.02332   0.35062   -0.187865           
         O         O         0.55585   0.96450   0.56255   -0.169199           
         C         C         0.59613   0.98403   0.52916   -0.185216           
         C         C         0.53551   0.08787   0.53008   0.073799  
         C         C         0.46898   0.91627   0.55882   0.084829  
         N         N         0.42835   0.89403   0.55643   -0.280270           
         N         N         0.57835   0.11261   0.56468   -0.244911           
         C         C         0.40965   0.85037   0.53873   0.197683  
         C         C         0.59628   0.15534   0.56732   0.198712  
         C         C         0.63261   0.18669   0.70065   -0.150471           
         C         C         0.65238   0.22960   0.71009   -0.124717           
         C         C         0.63912   0.24234   0.58400   0.059519  
         C         C         0.60343   0.21091   0.45003   -0.124973           
         C         C         0.58158   0.16780   0.44210   -0.185744           
         C         C         0.37633   0.83174   0.60023   -0.149599           
         C         C         0.35435   0.78797   0.57760   -0.113840           
         C         C         0.36316   0.76075   0.48725   0.064221  
         C         C         0.39642   0.77950   0.42549   -0.132785           
         C         C         0.41955   0.82345   0.45128   -0.176810           
         C         C         0.66140   0.28871   0.59670   -0.021129           
         C         C         0.33963   0.71382   0.45830   -0.042005           
         C         C         0.63751   0.30964   0.61946   -0.170679           
         C         C         0.30260   0.62588   0.42230   -0.171713           
         C         C         0.02999   0.52285   0.41620   -0.005312           
         C         C         0.00911   0.54249   0.48097   0.191574  
         C         C         0.97346   0.51839   0.52311   -0.236515           
         C         C         0.95784   0.47473   0.50437   -0.008973           
         C         C         0.97931   0.45533   0.44187   0.190537  
         C         C         0.01433   0.47923   0.39699   -0.237121           
         O         O         0.96386   0.41283   0.43051   -0.176515           
         C         C         0.98839   0.39471   0.37927   -0.185777           
         O         O         0.02643   0.58555   0.49912   -0.180400           
         C         C         0.01147   0.60734   0.58965   -0.181718           
         C         C         0.91928   0.44947   0.54233   0.078072  
         C         C         0.06937   0.54810   0.38192   0.079987  
         N         N         0.09175   0.53190   0.33615   -0.283664           
         N         N         0.89767   0.46550   0.59486   -0.293156           
         C         C         0.13486   0.56039   0.34176   0.195833  
         C         C         0.85634   0.43752   0.60290   0.195864  
         C         C         0.83993   0.45311   0.70297   -0.162686           
         C         C         0.79742   0.42687   0.70557   -0.125127           
         C         C         0.76911   0.38416   0.60792   0.078697  
         C         C         0.78552   0.36910   0.50697   -0.128524           
         C         C         0.82797   0.39491   0.50473   -0.194174           
         C         C         0.15317   0.54802   0.24173   -0.162821           
         C         C         0.19774   0.57509   0.25719   -0.130343           
         C         C         0.22537   0.61503   0.37270   0.073281  
         C         C         0.20698   0.62717   0.47239   -0.122465           
         C         C         0.16279   0.60037   0.45760   -0.185646           
         C         C         0.72356   0.35717   0.60945   -0.025967           
         C         C         0.27397   0.64285   0.40158   -0.026086           
         C         C         0.70464   0.31266   0.59031   0.153264  
         C         C         0.36690   0.69490   0.47824   -0.170842           
         O         O         0.72981   0.29501   0.55584   -0.202884           
         C         C         0.73787   0.26703   0.63356   -0.047932           
         C         C         0.77065   0.25801   0.57902   0.096925  
         N         N         0.77445   0.22329   0.62858   -0.196787           
         C         C         0.82176   0.23313   0.69091   -0.052614           
         C         C         0.84766   0.27244   0.64516   -0.178807           
         C         C         0.82004   0.29511   0.64338   -0.208748           
         C         C         0.73742   0.18260   0.57153   0.591449  
         O         O         0.74900   0.15441   0.61795   -0.337463           
         C         C         0.71198   0.11042   0.59213   0.455564  
         C         C         0.68836   0.08496   0.42201   -0.490141           
         C         C         0.73852   0.09219   0.67795   -0.476502           
         C         C         0.67883   0.11311   0.66237   -0.496094           
         O         O         0.69942   0.17344   0.48884   -0.503611           
         O         O         0.26059   0.69983   0.39181   -0.195477           
         C         C         0.26665   0.73445   0.32936   -0.053591           
         C         C         0.22048   0.72337   0.21782   0.097750  
         C         C         0.18053   0.70124   0.26847   -0.201220           
         C         C         0.14683   0.71377   0.18773   -0.177611           
         C         C         0.17790   0.76123   0.21142   -0.056899           
         N         N         0.21966   0.76274   0.20463   -0.196325           
         C         C         0.25655   0.79771   0.20531   0.590486  
         O         O         0.24981   0.83188   0.21550   -0.340639           
         C         C         0.28812   0.87469   0.23583   0.460276  
         C         C         0.26579   0.90216   0.22962   -0.468253           
         C         C         0.30499   0.87282   0.10542   -0.500223           
         C         C         0.32620   0.89100   0.39003   -0.493266           
         O         O         0.29060   0.79768   0.19527   -0.514752           
         H         H         0.49997   0.45355   0.78191   0.125979  
         H         H         0.53622   0.58038   0.60416   0.122500  
         H         H         0.61351   0.61351   0.64707   0.100317  
         H         H         0.57625   0.57828   0.45613   0.102118  
         H         H         0.63385   0.59032   0.52659   0.120387  
         H         H         0.40588   0.44669   0.87738   0.121254  
         H         H         0.46393   0.46003   0.94807   0.097995  
         H         H         0.42650   0.42290   0.76019   0.102207  
         H         H         0.59862   0.48897   0.65775   0.077208  
         H         H         0.43969   0.54761   0.73496   0.076976  
         H         H         0.51996   0.35567   0.55056   0.116020  
         H         H         0.56336   0.31937   0.51482   0.104588  
         H         H         0.68754   0.43456   0.80978   0.105759  
         H         H         0.64437   0.47141   0.83726   0.110042  
         H         H         0.48078   0.64530   0.49016   0.117852  
         H         H         0.43127   0.67631   0.42768   0.108116  
         H         H         0.33612   0.58541   0.57579   0.108089  
         H         H         0.38421   0.55385   0.63164   0.114890  
         H         H         0.71162   0.40978   0.63823   0.103080  
         H         H         0.58009   0.04552   0.54868   0.124042  
         H         H         0.42447   0.95919   0.53837   0.125354  
         H         H         0.39488   0.98825   0.29991   0.090362  
         H         H         0.43757   0.03555   0.28364   0.099042  
         H         H         0.39512   0.03777   0.34870   0.113158  
         H         H         0.60839   0.96135   0.52663   0.117916  
         H         H         0.62235   0.01468   0.61792   0.092318  
         H         H         0.58862   0.98935   0.41776   0.113075  
         H         H         0.51128   0.09922   0.50654   0.076303  
         H         H         0.49175   0.90335   0.56273   0.073959  
         H         H         0.64455   0.17733   0.79742   0.133166  
         H         H         0.67940   0.25332   0.81626   0.105357  
         H         H         0.59333   0.22012   0.35037   0.105572  
         H         H         0.55456   0.14342   0.33695   0.111228  
         H         H         0.36875   0.85232   0.66864   0.121983  
         H         H         0.32983   0.77471   0.63051   0.108031  
         H         H         0.40248   0.75884   0.35038   0.109723  
         H         H         0.44324   0.83679   0.39537   0.112897  
         H         H         0.60459   0.29090   0.62651   0.112593  
         H         H         0.28754   0.59188   0.40867   0.108702  
         H         H         0.95627   0.53200   0.57198   0.121595  
         H         H         0.03172   0.46583   0.34840   0.124192  
         H         H         0.02465   0.41336   0.45228   0.112328  
         H         H         0.98447   0.39298   0.26002   0.113312  
         H         H         0.97370   0.36241   0.38891   0.110741  
         H         H         0.03137   0.64121   0.60022   0.108586  
         H         H         0.01786   0.60327   0.70344   0.110062  
         H         H         0.97516   0.59587   0.53318   0.105067  
         H         H         0.90860   0.41548   0.51972   0.057885  
         H         H         0.08053   0.58218   0.40354   0.068727  
         H         H         0.86159   0.48576   0.78062   0.118968  
         H         H         0.78626   0.43917   0.78785   0.110151  
         H         H         0.76360   0.33711   0.42622   0.096317  
         H         H         0.83838   0.38324   0.41852   0.094617  
         H         H         0.13176   0.51738   0.15136   0.122339  
         H         H         0.21128   0.56557   0.17749   0.111633  
         H         H         0.22856   0.65675   0.56739   0.106422  
         H         H         0.15035   0.60834   0.54356   0.101194  
         H         H         0.40337   0.71604   0.51566   0.105171  
         H         H         0.70659   0.23684   0.60448   0.091234  
         H         H         0.75266   0.28288   0.75752   0.069079  
         H         H         0.75688   0.24800   0.45342   0.057529  
         H         H         0.82438   0.20556   0.64280   0.088600  
         H         H         0.83347   0.24023   0.81541   0.070106  
         H         H         0.84722   0.26205   0.53012   0.088575  
         H         H         0.88321   0.29266   0.72334   0.087665  
         H         H         0.82567   0.31705   0.57562   0.102233  
         H         H         0.82827   0.31380   0.75996   0.097220  
         H         H         0.66274   0.05217   0.40767   0.131585  
         H         H         0.71266   0.08300   0.37391   0.121903  
         H         H         0.67127   0.09932   0.35903   0.156297  
         H         H         0.76268   0.09095   0.62771   0.131317  
         H         H         0.71508   0.05958   0.67267   0.127312  
         H         H         0.75733   0.11240   0.79764   0.141502  
         H         H         0.65510   0.12002   0.58983   0.150775  
         H         H         0.69709   0.13792   0.77414   0.149533  
         H         H         0.65904   0.08242   0.67923   0.118193  
         H         H         0.29110   0.74007   0.27371   0.085554  
         H         H         0.27947   0.76372   0.42178   0.085351  
         H         H         0.21324   0.70350   0.10464   0.049604  
         H         H         0.16725   0.66672   0.24151   0.106607  
         H         H         0.19195   0.71482   0.39259   0.103465  
         H         H         0.12035   0.70855   0.23460   0.094408  
         H         H         0.13016   0.69542   0.06555   0.089632  
         H         H         0.18467   0.78124   0.32345   0.078925  
         H         H         0.16467   0.77318   0.12441   0.081154  
         H         H         0.23685   0.88866   0.12152   0.135307  
         H         H         0.29059   0.93472   0.23897   0.129418  
         H         H         0.25368   0.90424   0.32333   0.127014  
         H         H         0.27671   0.85858   0.99583   0.133289  
         H         H         0.32193   0.85410   0.10906   0.151313  
         H         H         0.32924   0.90566   0.11517   0.125874  
         H         H         0.35204   0.92417   0.40955   0.134277  
         H         H         0.34279   0.87188   0.39416   0.151226  
         H         H         0.31359   0.89097   0.48293   0.133787 

