
##########################################################################
#               Crystallographic Information Format file
#               Produced by PyCifRW module
#
#  This is a CIF file.  CIF has been adopted by the International
#  Union of Crystallography as the standard for data archiving and
#  transmission.
#
#  For information on this file format, follow the CIF links at
#  http://www.iucr.org
##########################################################################

data_image0

_cell_length_a                          36.9028
_cell_length_b                          36.709
_cell_length_c                          8.08171
_cell_angle_alpha                       94.4101
_cell_angle_beta                        87.657
_cell_angle_gamma                       119.777
_symmetry_space_group_name_H-M          'P 1'
_space_group_name_Hall                  'P 1'
loop_
  _atom_site_type_symbol
  _atom_site_label
  _atom_site_fract_x
  _atom_site_fract_y
  _atom_site_fract_z
  _atom_site_charge
         C         C         0.47740   0.51451   0.01520   -0.012122           
         C         C         0.45930   0.47067   0.03382   0.193569  
         C         C         0.48347   0.45419   0.08356   -0.236047           
         C         C         0.52641   0.48049   0.11456   -0.009398           
         C         C         0.54449   0.52402   0.09421   0.188892  
         C         C         0.52033   0.54043   0.04449   -0.198006           
         O         O         0.58624   0.55097   0.13352   -0.207210           
         C         C         0.61419   0.55990   0.99342   -0.189453           
         O         O         0.41721   0.44644   0.00001   -0.175203           
         C         C         0.39622   0.40556   0.06462   -0.187224           
         C         C         0.55234   0.46336   0.15958   0.078738  
         C         C         0.45146   0.53257   0.98077   0.080272  
         N         N         0.46727   0.57275   0.97326   -0.277815           
         N         N         0.53786   0.42350   0.17263   -0.283972           
         C         C         0.44066   0.58868   0.94784   0.200373  
         C         C         0.56638   0.40935   0.18908   0.195673  
         C         C         0.55379   0.37223   0.26993   -0.151986           
         C         C         0.58014   0.35537   0.27638   -0.127524           
         C         C         0.61969   0.37436   0.19960   0.059844  
         C         C         0.63235   0.41175   0.12101   -0.125308           
         C         C         0.60635   0.42891   0.11528   -0.177587           
         C         C         0.45182   0.62869   0.02314   -0.151684           
         C         C         0.42567   0.64559   0.01305   -0.129215           
         C         C         0.38806   0.62398   0.92334   0.052906  
         C         C         0.37809   0.58486   0.84155   -0.122152           
         C         C         0.40369   0.56735   0.85372   -0.178211           
         C         C         0.64615   0.35460   0.18557   0.062530  
         C         C         0.36034   0.64214   0.91437   0.079907  
         C         C         0.68973   0.37902   0.18163   -0.171844           
         C         C         0.30830   0.67761   0.90997   -0.184361           
         C         C         0.47270   0.95406   0.91618   -0.007511           
         C         C         0.51378   0.98248   0.86419   0.191326  
         C         C         0.53079   0.02544   0.89630   -0.210033           
         C         C         0.50757   0.04223   0.97949   -0.014232           
         C         C         0.46615   0.01389   0.02809   0.193460  
         C         C         0.44934   0.97082   -0.00152  -0.210354           
         O         O         0.44191   0.02939   0.10813   -0.207654           
         C         C         0.41829   0.03718   0.99196   -0.186666           
         O         O         0.53776   0.96708   0.78142   -0.206449           
         C         C         0.56246   0.95976   0.89349   -0.185632           
         C         C         0.52618   0.08736   0.01689   0.081679  
         C         C         0.45556   0.90892   0.88599   0.080374  
         N         N         0.42129   0.88257   0.95736   -0.291525           
         N         N         0.56475   0.11251   0.97793   -0.291650           
         C         C         0.40584   0.83910   0.93503   0.195736  
         C         C         0.58385   0.15586   0.01731   0.196954  
         C         C         0.62277   0.18076   0.94186   -0.150909           
         C         C         0.64468   0.22417   0.97243   -0.132375           
         C         C         0.62951   0.24498   0.08315   0.073292  
         C         C         0.59057   0.21977   0.15969   -0.119717           
         C         C         0.56810   0.17645   0.12721   -0.171571           
         C         C         0.36664   0.81341   0.00699   -0.143706           
         C         C         0.34899   0.76991   -0.00121  -0.129375           
         C         C         0.36985   0.75018   0.91865   0.063120  
         C         C         0.40895   0.77590   0.84571   -0.122681           
         C         C         0.42670   0.81936   0.85345   -0.166540           
         C         C         0.65230   0.29115   0.12031   -0.024412           
         C         C         0.35171   0.70415   0.91445   0.075738  
         C         C         0.62846   0.31101   0.15858   -0.168409           
         C         C         0.31667   0.61644   0.91050   -0.183606           
         C         C         0.04414   0.52453   0.92795   -0.006913           
         C         C         0.01942   0.54442   0.94167   0.188912  
         C         C         0.97714   0.52118   0.97873   -0.235883           
         C         C         0.95787   0.47772   -0.00262  -0.009450           
         C         C         0.98220   0.45754   0.97736   0.193367  
         C         C         0.02469   0.48100   0.94490   -0.230426           
         O         O         0.96151   0.41488   -0.00388  -0.183195           
         C         C         0.98187   0.39209   0.93111   -0.185527           
         O         O         0.03977   0.58685   0.91687   -0.177903           
         C         C         0.01710   0.60853   0.96078   -0.189706           
         C         C         0.91346   0.45335   0.03195   0.082509  
         C         C         0.08922   0.54902   0.90746   0.083494  
         N         N         0.11248   0.53164   0.90101   -0.282536           
         N         N         0.89024   0.47054   0.05913   -0.286154           
         C         C         0.15589   0.55744   0.90477   0.200151  
         C         C         0.84786   0.44399   0.09278   0.199610  
         C         C         0.81892   0.45429   0.03409   -0.157649           
         C         C         0.77625   0.42711   0.05074   -0.129953           
         C         C         0.76083   0.38957   0.13166   0.068767  
         C         C         0.78997   0.38128   0.20210   -0.111065           
         C         C         0.83263   0.40758   0.18165   -0.177599           
         C         C         0.18084   0.54319   0.81792   -0.154535           
         C         C         0.22416   0.56784   0.81861   -0.128782           
         C         C         0.24431   0.60713   0.90857   0.051547  
         C         C         0.21930   0.62040   0.00095   -0.124533           
         C         C         0.17597   0.59613   -0.00031  -0.177511           
         C         C         0.71523   0.36123   0.14457   -0.017674           
         C         C         0.29026   0.63377   0.90896   0.081695  
         C         C         0.69634   0.31715   0.11104   0.163858  
         C         C         0.37726   0.68589   0.91601   -0.185865           
         O         O         0.72218   0.30173   0.05092   -0.219382           
         C         C         0.72849   0.27472   0.15401   -0.049270           
         C         C         0.75450   0.25892   0.05487   0.110198  
         C         C         0.80023   0.29297   0.02247   -0.204157           
         C         C         0.82743   0.27516   0.07958   -0.168818           
         C         C         0.79655   0.22805   0.08923   -0.027460           
         N         N         0.75805   0.22759   0.14886   -0.384558           
         H         H         0.47051   0.42089   0.09972   0.121704  
         H         H         0.53400   0.57406   0.03292   0.141908  
         H         H         0.60494   0.57202   0.89257   0.112512  
         H         H         0.61485   0.53133   0.94499   0.086620  
         H         H         0.64520   0.58353   0.03997   0.110254  
         H         H         0.40600   0.38432   0.00021   0.102016  
         H         H         0.36292   0.39324   0.04259   0.115035  
         H         H         0.40209   0.40808   0.19851   0.104632  
         H         H         0.58551   0.48629   0.17891   0.058407  
         H         H         0.41780   0.51065   0.97059   0.067562  
         H         H         0.52325   0.35742   0.32925   0.117815  
         H         H         0.57024   0.32723   0.34301   0.106207  
         H         H         0.66185   0.42587   0.05376   0.104515  
         H         H         0.61566   0.45587   0.04215   0.104165  
         H         H         0.48033   0.64496   0.09604   0.120546  
         H         H         0.43387   0.67549   0.08024   0.107917  
         H         H         0.35057   0.56869   0.76288   0.104147  
         H         H         0.39606   0.53769   0.78553   0.110554  
         H         H         0.70452   0.41290   0.20725   0.103274  
         H         H         0.28814   0.69117   0.90196   0.101926  
         H         H         0.56251   0.04704   0.85774   0.132460  
         H         H         0.41774   0.94923   0.03854   0.134731  
         H         H         0.40201   0.05113   0.06495   0.110607  
         H         H         0.39543   0.00769   0.92561   0.097548  
         H         H         0.43888   0.05901   0.89992   0.099488  
         H         H         0.58628   0.98956   0.95477   0.094213  
         H         H         0.57774   0.94513   0.81788   0.112061  
         H         H         0.54276   0.93873   0.98938   0.100483  
         H         H         0.50588   0.09800   0.08022   0.067714  
         H         H         0.47370   0.89931   0.80109   0.067939  
         H         H         0.63477   0.16514   0.85487   0.113853  
         H         H         0.67396   0.24259   0.90879   0.098017  
         H         H         0.57866   0.23424   0.25260   0.104393  
         H         H         0.53925   0.15832   0.19521   0.109616  
         H         H         0.35118   0.82876   0.07385   0.118443  
         H         H         0.31945   0.75099   0.06139   0.108791  
         H         H         0.42508   0.76124   0.77880   0.103684  
         H         H         0.45685   0.83796   0.79475   0.108585  
         H         H         0.59465   0.29188   0.15453   0.103116  
         H         H         0.30294   0.58260   0.91610   0.103752  
         H         H         0.95727   0.53525   0.99383   0.122926  
         H         H         0.04469   0.46703   0.93504   0.125406  
         H         H         0.95880   0.35879   0.94122   0.112050  
         H         H         0.00963   0.40006   0.00431   0.100500  
         H         H         0.99046   0.39815   0.79999   0.112567  
         H         H         0.98967   0.59731   0.88072   0.104577  
         H         H         0.03894   0.64176   0.94262   0.114204  
         H         H         0.00706   0.60466   0.09136   0.108537  
         H         H         0.90038   0.41920   0.03075   0.066328  
         H         H         0.10249   0.58305   0.90129   0.069005  
         H         H         0.83064   0.48249   0.96624   0.118164  
         H         H         0.75435   0.43410   0.99396   0.103962  
         H         H         0.77893   0.35477   0.27921   0.106526  
         H         H         0.85455   0.40096   0.24062   0.105111  
         H         H         0.16543   0.51319   0.74588   0.118544  
         H         H         0.24282   0.55714   0.74471   0.107354  
         H         H         0.23421   0.64927   0.08049   0.104963  
         H         H         0.15732   0.60581   0.07913   0.108819  
         H         H         0.41098   0.70606   0.92001   0.100054  
         H         H         0.69825   0.24793   0.18601   0.070198  
         H         H         0.74406   0.29257   0.26896   0.073642  
         H         H         0.73956   0.24476   0.93419   0.029573  
         H         H         0.80451   0.29811   0.88960   0.092249  
         H         H         0.80790   0.32314   0.08799   0.090190  
         H         H         0.84066   0.28909   0.20281   0.079615  
         H         H         0.85352   0.28122   0.99464   0.083089  
         H         H         0.80635   0.21306   0.17633   0.062068  
         H         H         0.79291   0.21179   0.96535   0.051855  
         H         H         0.73254   0.19850   0.12731   0.233838  
         C         C         0.47767   0.51851   0.50860   -0.012047           
         C         C         0.46019   0.47476   0.52788   0.190022  
         C         C         0.48528   0.45888   0.57344   -0.236018           
         C         C         0.52845   0.48536   0.59927   -0.015915           
         C         C         0.54617   0.52866   0.57284   0.189349  
         C         C         0.52093   0.54453   0.52938   -0.194176           
         O         O         0.58803   0.55695   0.60315   -0.199858           
         C         C         0.61842   0.55377   0.49388   -0.185550           
         O         O         0.41782   0.45000   0.50041   -0.175654           
         C         C         0.39840   0.40886   0.56281   -0.188519           
         C         C         0.55407   0.46823   0.65017   0.079501  
         C         C         0.45111   0.53637   0.47957   0.080964  
         N         N         0.46649   0.57650   0.47163   -0.277337           
         N         N         0.53985   0.42822   0.65711   -0.281252           
         C         C         0.43968   0.59251   0.45081   0.201095  
         C         C         0.56797   0.41385   0.67929   0.196365  
         C         C         0.55430   0.37611   0.75723   -0.155050           
         C         C         0.58001   0.35854   0.76496   -0.125114           
         C         C         0.61998   0.37720   0.69167   0.058716  
         C         C         0.63378   0.41530   0.61671   -0.125626           
         C         C         0.60857   0.43341   0.61090   -0.178409           
         C         C         0.45116   0.63249   0.52760   -0.152675           
         C         C         0.42527   0.64978   0.51976   -0.126922           
         C         C         0.38749   0.62857   0.43130   0.053195  
         C         C         0.37706   0.58941   0.34854   -0.123520           
         C         C         0.40245   0.57155   0.35816   -0.177983           
         C         C         0.64596   0.35682   0.67975   0.061448  
         C         C         0.35978   0.64680   0.42526   0.081424  
         C         C         0.68960   0.38101   0.67754   -0.174359           
         C         C         0.30625   0.68074   0.42658   -0.187569           
         C         C         0.47165   0.95667   0.43158   -0.004043           
         C         C         0.51499   0.98334   0.40412   0.195490  
         C         C         0.53209   0.02666   0.42406   -0.237354           
         C         C         0.50707   0.04497   0.46689   -0.010002           
         C         C         0.46344   0.01838   0.48649   0.194780  
         C         C         0.44644   0.97496   0.46952   -0.235357           
         O         O         0.44034   0.03804   0.52536   -0.181955           
         C         C         0.39601   0.01235   0.50767   -0.185599           
         O         O         0.53774   0.96372   0.35806   -0.176238           
         C         C         0.58222   0.98977   0.35847   -0.184645           
         C         C         0.52599   0.09040   0.49149   0.086252  
         C         C         0.45437   0.91140   0.42691   0.085874  
         N         N         0.41499   0.88582   0.45105   -0.294089           
         N         N         0.56612   0.11438   0.48231   -0.292412           
         C         C         0.40059   0.84247   0.44269   0.197615  
         C         C         0.58464   0.15776   0.51669   0.200980  
         C         C         0.62370   0.18291   0.44288   -0.158505           
         C         C         0.64497   0.22628   0.47290   -0.133259           
         C         C         0.62931   0.24682   0.58277   0.067098  
         C         C         0.59040   0.22136   0.65866   -0.123572           
         C         C         0.56827   0.17797   0.62538   -0.175991           
         C         C         0.36400   0.81701   0.53142   -0.155997           
         C         C         0.34773   0.77370   0.52860   -0.130700           
         C         C         0.36702   0.75398   0.43553   0.053866  
         C         C         0.40315   0.77942   0.34451   -0.128638           
         C         C         0.41962   0.82273   0.34718   -0.171825           
         C         C         0.65193   0.29304   0.61882   -0.021550           
         C         C         0.34957   0.70794   0.43115   0.080197  
         C         C         0.62816   0.31313   0.65436   -0.170015           
         C         C         0.31629   0.62053   0.42032   -0.185035           
         C         C         0.04319   0.51775   0.41354   -0.010246           
         C         C         0.01844   0.53744   0.41317   0.196023  
         C         C         0.97648   0.51577   0.45653   -0.222866           
         C         C         0.95730   0.47348   0.49573   -0.007298           
         C         C         0.98164   0.45337   0.49014   0.187170  
         C         C         0.02376   0.47530   0.45068   -0.207482           
         O         O         0.96368   0.41183   0.53361   -0.208701           
         C         C         0.94993   0.38177   0.39215   -0.183349           
         O         O         0.03801   0.57858   0.36799   -0.183881           
         C         C         0.02845   0.60640   0.47187   -0.191116           
         C         C         0.91315   0.45042   0.53797   0.079704  
         C         C         0.08817   0.54256   0.39142   0.085730  
         N         N         0.11259   0.52682   0.39877   -0.282945           
         N         N         0.89021   0.46813   0.55060   -0.283146           
         C         C         0.15567   0.55469   0.40372   0.201742  
         C         C         0.84781   0.44317   0.58920   0.198582  
         C         C         0.81952   0.45362   0.52491   -0.152447           
         C         C         0.77669   0.42739   0.54315   -0.130286           
         C         C         0.76061   0.39081   0.63078   0.071086  
         C         C         0.78918   0.38265   0.70702   -0.109310           
         C         C         0.83191   0.40803   0.68596   -0.177777           
         C         C         0.18267   0.54235   0.32240   -0.158577           
         C         C         0.22567   0.56917   0.32622   -0.122898           
         C         C         0.24346   0.60868   0.41495   0.050392  
         C         C         0.21638   0.62027   0.50036   -0.121833           
         C         C         0.17331   0.59397   0.49476   -0.179641           
         C         C         0.71493   0.36294   0.64311   -0.016305           
         C         C         0.28911   0.63691   0.42041   0.079364  
         C         C         0.69601   0.31887   0.61049   0.161734  
         C         C         0.37593   0.69050   0.42950   -0.189107           
         O         O         0.72202   0.30354   0.55129   -0.218933           
         C         C         0.72871   0.27676   0.65442   -0.049354           
         C         C         0.75470   0.26107   0.55427   0.110801  
         C         C         0.80023   0.29518   0.51868   -0.203922           
         C         C         0.82787   0.27814   0.57811   -0.169259           
         C         C         0.79746   0.23096   0.58888   -0.027273           
         N         N         0.75879   0.23011   0.64853   -0.381540           
         H         H         0.47271   0.42583   0.59318   0.121759  
         H         H         0.53436   0.57800   0.51477   0.140639  
         H         H         0.62804   0.57664   0.39851   0.111448  
         H         H         0.60583   0.52220   0.43187   0.095134  
         H         H         0.64518   0.56057   0.57081   0.102758  
         H         H         0.40896   0.38859   0.49525   0.101628  
         H         H         0.36484   0.39550   0.54357   0.113738  
         H         H         0.40491   0.41122   0.69601   0.106802  
         H         H         0.58664   0.49112   0.68129   0.056257  
         H         H         0.41741   0.51429   0.47326   0.067281  
         H         H         0.52337   0.36123   0.81319   0.118582  
         H         H         0.56918   0.32998   0.82975   0.107410  
         H         H         0.66365   0.42936   0.55215   0.104375  
         H         H         0.61900   0.46119   0.54150   0.102081  
         H         H         0.47988   0.64859   0.59914   0.119559  
         H         H         0.43364   0.67960   0.58806   0.103229  
         H         H         0.34928   0.57344   0.27120   0.104528  
         H         H         0.39446   0.54199   0.28844   0.112441  
         H         H         0.70459   0.41490   0.70298   0.102942  
         H         H         0.28562   0.69389   0.42187   0.102288  
         H         H         0.56520   0.04817   0.40796   0.120008  
         H         H         0.41340   0.95342   0.48742   0.122488  
         H         H         0.38813   0.99821   0.38011   0.110664  
         H         H         0.38322   0.03348   0.53460   0.111996  
         H         H         0.38285   0.98745   0.59580   0.100130  
         H         H         0.59269   0.01372   0.26661   0.100599  
         H         H         0.59447   0.96845   0.32459   0.112483  
         H         H         0.59327   0.00514   0.48276   0.108839  
         H         H         0.50461   0.10282   0.51726   0.069731  
         H         H         0.47688   0.90024   0.40719   0.069030  
         H         H         0.63611   0.16754   0.35676   0.113162  
         H         H         0.67422   0.24497   0.40963   0.096881  
         H         H         0.57824   0.23560   0.75157   0.104539  
         H         H         0.53938   0.15925   0.69229   0.109442  
         H         H         0.34948   0.83223   0.60613   0.116321  
         H         H         0.32032   0.75486   0.60313   0.105444  
         H         H         0.41731   0.76465   0.26470   0.107230  
         H         H         0.44630   0.84120   0.26881   0.110307  
         H         H         0.59434   0.29395   0.64994   0.102085  
         H         H         0.30327   0.58674   0.42365   0.101557  
         H         H         0.95700   0.53034   0.45918   0.128367  
         H         H         0.04287   0.46042   0.45416   0.135670  
         H         H         0.93795   0.35075   0.44097   0.108533  
         H         H         0.97591   0.38808   0.30576   0.100627  
         H         H         0.92504   0.38258   0.32463   0.098289  
         H         H         0.05003   0.63813   0.43356   0.113380  
         H         H         0.03360   0.60413   0.60286   0.106582  
         H         H         0.99618   0.59958   0.45558   0.100877  
         H         H         0.90024   0.41686   0.55557   0.065536  
         H         H         0.10049   0.57599   0.37307   0.067109  
         H         H         0.83173   0.48094   0.45133   0.117513  
         H         H         0.75516   0.43416   0.48202   0.103806  
         H         H         0.77767   0.35691   0.78849   0.107185  
         H         H         0.85334   0.40151   0.74925   0.109850  
         H         H         0.16913   0.51213   0.25178   0.119186  
         H         H         0.24595   0.55993   0.25619   0.103995  
         H         H         0.22947   0.64954   0.57761   0.104384  
         H         H         0.15303   0.60257   0.56838   0.109653  
         H         H         0.40955   0.71139   0.43292   0.102242  
         H         H         0.69858   0.24982   0.68649   0.070228  
         H         H         0.74433   0.29462   0.76936   0.074581  
         H         H         0.73929   0.24644   0.43486   0.029143  
         H         H         0.80415   0.29935   0.38501   0.090403  
         H         H         0.80784   0.32570   0.58081   0.091642  
         H         H         0.84090   0.29247   0.70120   0.083136  
         H         H         0.85412   0.28437   0.49386   0.079236  
         H         H         0.80762   0.21638   0.67645   0.061678  
         H         H         0.79385   0.21453   0.46540   0.051981  
         H         H         0.73343   0.20091   0.62742   0.232851 

