
##########################################################################
#               Crystallographic Information Format file
#               Produced by PyCifRW module
#
#  This is a CIF file.  CIF has been adopted by the International
#  Union of Crystallography as the standard for data archiving and
#  transmission.
#
#  For information on this file format, follow the CIF links at
#  http://www.iucr.org
##########################################################################

data_image0

_cell_length_a                          37.6532
_cell_length_b                          35.8216
_cell_length_c                          11.3063
_cell_angle_alpha                       88.3131
_cell_angle_beta                        59.8922
_cell_angle_gamma                       119.749
_symmetry_space_group_name_H-M          'P 1'
_space_group_name_Hall                  'P 1'
loop_
  _atom_site_type_symbol
  _atom_site_label
  _atom_site_fract_x
  _atom_site_fract_y
  _atom_site_fract_z
  _atom_site_charge
         C         C         0.48781   0.54087   0.04695   -0.013455           
         C         C         0.48076   0.50081   0.01381   0.186607  
         C         C         0.50620   0.48419   0.02174   -0.246092           
         C         C         0.53936   0.50643   0.06113   -0.015183           
         C         C         0.54683   0.54675   0.09295   0.193638  
         C         C         0.52093   0.56315   0.08637   -0.243952           
         O         O         0.57961   0.56678   0.13026   -0.170599           
         C         C         0.58958   0.60865   0.15739   -0.183984           
         O         O         0.44885   0.48125   0.97292   -0.172824           
         C         C         0.44374   0.44246   0.93079   -0.179719           
         C         C         0.56547   0.48822   0.06867   0.083991  
         C         C         0.46227   0.55905   0.03473   0.071348  
         N         N         0.46873   0.59632   0.05896   -0.284481           
         N         N         0.55434   0.44863   0.05617   -0.305751           
         C         C         0.44238   0.61130   0.04623   0.203090  
         C         C         0.57885   0.43073   0.06622   0.199001  
         C         C         0.57753   0.39674   0.00508   -0.163143           
         C         C         0.60105   0.37699   0.00795   -0.134867           
         C         C         0.62592   0.38943   0.07576   0.055571  
         C         C         0.62627   0.42279   0.13942   -0.123947           
         C         C         0.60316   0.44292   0.13581   -0.169259           
         C         C         0.46610   0.65930   -0.00222  -0.157018           
         C         C         0.44368   0.67697   0.97411   -0.126306           
         C         C         0.39572   0.64768   0.00193   0.063226  
         C         C         0.37116   0.59957   0.05732   -0.130175           
         C         C         0.39361   0.58158   0.07956   -0.177538           
         C         C         0.65051   0.36818   0.08022   0.056184  
         C         C         0.37217   0.66672   0.97563   0.055916  
         C         C         0.69293   0.39237   0.08250   -0.177136           
         C         C         0.32776   0.70367   0.92401   0.146308  
         C         C         0.50009   0.98986   0.88881   -0.012570           
         C         C         0.55011   0.01968   0.84804   0.195947  
         C         C         0.56344   0.05773   0.89067   -0.229827           
         C         C         0.52812   0.06725   0.97198   -0.016718           
         C         C         0.47870   0.03851   0.00711   0.183927  
         C         C         0.46530   0.00027   0.96598   -0.241814           
         O         O         0.44606   0.05006   0.08511   -0.176782           
         C         C         0.39521   0.01952   0.12746   -0.184288           
         O         O         0.58262   0.00808   0.76994   -0.175662           
         C         C         0.63020   0.03330   0.75073   -0.192953           
         C         C         0.54353   0.10778   0.01348   0.094309  
         C         C         0.48295   0.94592   0.86632   0.086544  
         N         N         0.43528   0.91439   0.92999   -0.243867           
         N         N         0.58163   0.12678   0.01961   -0.249312           
         C         C         0.41938   0.87008   0.92543   0.208919  
         C         C         0.59896   0.16942   0.03868   0.208638  
         C         C         0.63207   0.21025   0.91461   -0.177901           
         C         C         0.65118   0.25327   0.92796   -0.138463           
         C         C         0.63788   0.25686   0.06495   0.049724  
         C         C         0.60503   0.21613   0.18873   -0.127625           
         C         C         0.58626   0.17279   0.17601   -0.177722           
         C         C         0.39169   0.83419   0.05785   -0.177473           
         C         C         0.37539   0.78953   0.06149   -0.141468           
         C         C         0.38413   0.77896   0.93534   0.054239  
         C         C         0.41069   0.81469   0.80400   -0.127979           
         C         C         0.42869   0.85998   0.79830   -0.179456           
         C         C         0.65797   0.30370   0.07299   -0.015187           
         C         C         0.36568   0.73078   0.94361   -0.009151           
         C         C         0.63372   0.32369   0.07631   -0.177641           
         C         C         0.33521   0.64109   0.95153   -0.176436           
         C         C         0.06585   0.53934   0.96534   -0.014607           
         C         C         0.03308   0.55328   0.02475   0.188488  
         C         C         0.99071   0.53250   0.02399   -0.248405           
         C         C         0.97988   0.49819   0.96327   -0.014806           
         C         C         0.01318   0.48484   0.90118   0.190030  
         C         C         0.05511   0.50510   0.90435   -0.240066           
         O         O         0.00110   0.45190   0.84136   -0.168868           
         C         C         0.03339   0.43701   0.78035   -0.177833           
         O         O         0.04617   0.58748   0.07992   -0.166126           
         C         C         0.01399   0.60239   0.13957   -0.177367           
         C         C         0.93432   0.47539   0.96847   0.085606  
         C         C         0.11017   0.56123   0.96630   0.084483  
         N         N         0.14266   0.55144   0.90910   -0.280933           
         N         N         0.90223   0.48562   0.02807   -0.293626           
         C         C         0.18312   0.57467   0.92058   0.194504  
         C         C         0.85883   0.46070   0.03060   0.197256  
         C         C         0.81285   0.44996   0.15453   -0.158946           
         C         C         0.76731   0.42114   0.17149   -0.134645           
         C         C         0.76677   0.40386   0.06201   0.070724  
         C         C         0.81340   0.41795   0.93289   -0.124738           
         C         C         0.85883   0.44572   0.91668   -0.181071           
         C         C         0.23228   0.59137   0.79812   -0.168781           
         C         C         0.27424   0.61847   0.79977   -0.128316           
         C         C         0.26800   0.62828   0.92531   0.072327  
         C         C         0.21846   0.60862   0.05090   -0.126344           
         C         C         0.17643   0.58206   0.04969   -0.181692           
         C         C         0.71917   0.37423   0.07502   -0.017739           
         C         C         0.31159   0.65822   0.93114   -0.018886           
         C         C         0.70147   0.32941   0.07058   0.145792  
         C         C         0.38576   0.71113   0.97425   -0.168967           
         O         O         0.72536   0.31066   0.07720   -0.252266           
         C         C         0.72988   0.24887   0.99262   -0.135535           
         N         N         0.75259   0.24233   0.05865   -0.186877           
         C         C         0.79371   0.28618   0.03934   0.002225  
         C         C         0.80563   0.32127   0.91807   -0.272719           
         C         C         0.75322   0.30064   0.95238   0.181006  
         C         C         0.73328   0.19909   0.13671   0.591161  
         O         O         0.75805   0.20182   0.19593   -0.337742           
         C         C         0.75133   0.15936   0.25630   0.460046  
         C         C         0.76648   0.13951   0.13694   -0.493538           
         C         C         0.78910   0.17840   0.29400   -0.469614           
         C         C         0.69677   0.12412   0.39300   -0.498983           
         O         O         0.69841   0.16328   0.14976   -0.510164           
         O         O         0.30759   0.72188   0.88973   -0.259404           
         C         C         0.28195   0.77073   0.00116   -0.130541           
         C         C         0.26637   0.72142   0.01079   0.187467  
         C         C         0.22205   0.69918   0.99626   -0.263576           
         C         C         0.21380   0.73608   0.97467   -0.016267           
         N         N         0.26054   0.77921   0.93469   -0.178223           
         C         C         0.28028   0.82277   0.85647   0.594070  
         O         O         0.25218   0.82018   0.81046   -0.336582           
         C         C         0.26358   0.86318   0.73353   0.459703  
         C         C         0.22255   0.84380   0.70840   -0.469255           
         C         C         0.31678   0.89186   0.58774   -0.495617           
         C         C         0.25583   0.88970   0.83652   -0.489218           
         O         O         0.31819   0.85820   0.83251   -0.521003           
         C         C         0.84074   0.28946   0.99615   0.503077  
         O         O         0.85415   0.27120   0.89194   -0.195808           
         C         C         0.89973   0.27486   0.84312   -0.186056           
         O         O         0.86515   0.30848   0.04357   -0.466123           
         C         C         0.16875   0.72834   0.11815   0.501967  
         O         O         0.14099   0.73700   0.09453   -0.200630           
         C         C         0.09925   0.73282   0.22525   -0.189023           
         O         O         0.15917   0.71711   0.23923   -0.460050           
         H         H         0.50192   0.45375   -0.00271  0.117731  
         H         H         0.52521   0.59356   0.11111   0.127217  
         H         H         0.60682   0.63623   0.05896   0.103465  
         H         H         0.61650   0.61850   0.18398   0.118443  
         H         H         0.55472   0.60279   0.25117   0.103829  
         H         H         0.42568   0.41276   0.02447   0.103688  
         H         H         0.48097   0.45174   0.83942   0.101289  
         H         H         0.41969   0.43387   0.89391   0.123325  
         H         H         0.59485   0.50982   0.08389   0.078073  
         H         H         0.43833   0.54006   -0.00058  0.071282  
         H         H         0.55800   0.38674   0.95381   0.114667  
         H         H         0.60072   0.35197   0.95526   0.108027  
         H         H         0.64334   0.43177   0.19770   0.107794  
         H         H         0.60239   0.46699   0.19176   0.115054  
         H         H         0.50322   0.68221   0.97513   0.115290  
         H         H         0.46414   0.71430   0.93055   0.108304  
         H         H         0.33339   0.57553   0.08517   0.102964  
         H         H         0.37306   0.54427   0.12554   0.112932  
         H         H         0.70802   0.42734   0.08215   0.116365  
         H         H         0.60152   0.08179   0.86048   0.134909  
         H         H         0.42727   0.97614   0.99610   0.125066  
         H         H         0.39512   0.01781   0.03058   0.106684  
         H         H         0.37554   0.03436   0.18739   0.114237  
         H         H         0.37575   0.98438   0.19969   0.113127  
         H         H         0.64945   0.01800   0.69204   0.111747  
         H         H         0.62400   0.02928   0.85763   0.110414  
         H         H         0.65346   0.07028   0.68608   0.111711  
         H         H         0.52153   0.12173   0.03665   0.075892  
         H         H         0.51184   0.93991   0.80329   0.078291  
         H         H         0.64238   0.20778   0.80815   0.111664  
         H         H         0.67666   0.28443   0.83070   0.104085  
         H         H         0.59442   0.21825   0.29589   0.109902  
         H         H         0.56138   0.14139   0.27207   0.124797  
         H         H         0.38398   0.84245   0.15589   0.116657  
         H         H         0.35442   0.76206   0.16419   0.103290  
         H         H         0.41728   0.80704   0.70555   0.110073  
         H         H         0.44916   0.88759   0.69683   0.106258  
         H         H         0.60020   0.30311   0.07832   0.115526  
         H         H         0.32382   0.60675   0.94996   0.111860  
         H         H         0.96434   0.54166   0.07077   0.122049  
         H         H         0.08133   0.49576   0.85815   0.126231  
         H         H         0.03454   0.42218   0.86382   0.104121  
         H         H         0.07209   0.46555   0.68534   0.109121  
         H         H         0.01592   0.41007   0.74385   0.113116  
         H         H         0.03228   0.63063   0.17108   0.114337  
         H         H         0.97547   0.57429   0.23680   0.110859  
         H         H         0.01156   0.61546   0.05657   0.098703  
         H         H         0.92756   0.44775   0.92423   0.078679  
         H         H         0.11545   0.58766   0.01559   0.076192  
         H         H         0.81335   0.46280   0.23998   0.118743  
         H         H         0.73169   0.41117   0.27157   0.108223  
         H         H         0.81384   0.40756   0.84311   0.106574  
         H         H         0.89449   0.45661   0.81481   0.106292  
         H         H         0.23722   0.58421   0.70032   0.111286  
         H         H         0.31222   0.63277   0.70193   0.106967  
         H         H         0.21310   0.61441   0.15064   0.103832  
         H         H         0.13825   0.56638   0.14891   0.108581  
         H         H         0.41298   0.73174   0.99679   0.110225  
         H         H         0.68839   0.22662   0.07015   0.104975  
         H         H         0.74076   0.24027   0.89318   0.101790  
         H         H         0.78066   0.29333   0.14128   0.079372  
         H         H         0.82999   0.32139   0.80977   0.126413  
         H         H         0.82394   0.35621   0.91904   0.120075  
         H         H         0.75548   0.31457   0.85919   0.064819  
         H         H         0.80444   0.16634   0.03606   0.129919  
         H         H         0.73916   0.12491   0.11082   0.141851  
         H         H         0.76758   0.11206   0.17683   0.134444  
         H         H         0.82802   0.20438   0.19511   0.121774  
         H         H         0.78765   0.15005   0.34122   0.133164  
         H         H         0.78015   0.19472   0.37433   0.137184  
         H         H         0.69297   0.09345   0.43596   0.129208  
         H         H         0.66974   0.11369   0.36672   0.142106  
         H         H         0.68721   0.13819   0.47982   0.154275  
         H         H         0.32319   0.79677   0.93347   0.112532  
         H         H         0.26542   0.77223   0.11173   0.093506  
         H         H         0.25519   0.70206   0.11450   0.053035  
         H         H         0.18729   0.66768   0.09169   0.111797  
         H         H         0.23368   0.68974   0.89907   0.123320  
         H         H         0.20892   0.73827   0.88772   0.104700  
         H         H         0.22737   0.82414   0.63649   0.137618  
         H         H         0.22517   0.87220   0.65594   0.131892  
         H         H         0.18468   0.82089   0.81390   0.125429  
         H         H         0.32348   0.92251   0.53059   0.132437  
         H         H         0.32034   0.87205   0.51575   0.156880  
         H         H         0.34608   0.90311   0.60496   0.138777  
         H         H         0.21700   0.86772   0.93900   0.130119  
         H         H         0.26144   0.92011   0.78272   0.133849  
         H         H         0.28276   0.90121   0.86367   0.137230  
         H         H         0.90599   0.25985   0.75813   0.119990  
         H         H         0.89410   0.25548   0.93539   0.110538  
         H         H         0.93206   0.31122   0.79862   0.105876  
         H         H         0.07159   0.69722   0.30611   0.101155  
         H         H         0.08210   0.74212   0.18722   0.116523  
         H         H         0.11332   0.75637   0.27562   0.115803  
         C         C         0.47083   0.51158   0.48419   -0.014503           
         C         C         0.46261   0.47014   0.46062   0.193769  
         C         C         0.48568   0.45276   0.48188   -0.247266           
         C         C         0.51629   0.47502   0.52926   -0.017832           
         C         C         0.52343   0.51579   0.55635   0.185934  
         C         C         0.50094   0.53346   0.53311   -0.244535           
         O         O         0.55198   0.53488   0.60798   -0.172229           
         C         C         0.55532   0.57359   0.64814   -0.179885           
         O         O         0.43232   0.45020   0.41517   -0.170257           
         C         C         0.42359   0.40833   0.39026   -0.180930           
         C         C         0.54067   0.45677   0.54908   0.072922  
         C         C         0.44910   0.53175   0.45681   0.084210  
         N         N         0.46365   0.57335   0.45328   -0.297040           
         N         N         0.52986   0.41680   0.54213   -0.290752           
         C         C         0.43919   0.59049   0.43911   0.205154  
         C         C         0.55450   0.40049   0.55976   0.195584  
         C         C         0.55824   0.36877   0.49308   -0.150455           
         C         C         0.58465   0.35271   0.49670   -0.133013           
         C         C         0.60663   0.36610   0.57227   0.059006  
         C         C         0.60086   0.39624   0.64446   -0.132518           
         C         C         0.57536   0.41322   0.63876   -0.177977           
         C         C         0.46812   0.63823   0.36159   -0.156976           
         C         C         0.44572   0.65753   0.34675   -0.125493           
         C         C         0.39319   0.63021   0.41227   0.061275  
         C         C         0.36426   0.58268   0.49235   -0.125555           
         C         C         0.38661   0.56297   0.50520   -0.176304           
         C         C         0.63426   0.34849   0.57571   0.056327  
         C         C         0.36832   0.65049   0.40353   0.061423  
         C         C         0.67475   0.37418   0.58573   -0.179362           
         C         C         0.31717   0.68729   0.40178   0.145769  
         C         C         0.48976   0.95723   0.47363   -0.015576           
         C         C         0.54032   0.98906   0.42791   0.189255  
         C         C         0.55265   0.02696   0.47096   -0.239068           
         C         C         0.51586   0.03416   0.56076   -0.013452           
         C         C         0.46493   0.00139   0.61144   0.198213  
         C         C         0.45271   0.96379   0.56683   -0.235338           
         O         O         0.43025   0.00954   0.70155   -0.176487           
         C         C         0.38071   0.98000   0.73397   -0.192821           
         O         O         0.57487   0.98033   0.34121   -0.175342           
         C         C         0.62562   0.01232   0.29817   -0.184237           
         C         C         0.53125   0.07685   0.59006   0.088876  
         C         C         0.47496   0.91673   0.43181   0.085506  
         N         N         0.42816   0.88710   0.48072   -0.255404           
         N         N         0.57882   0.10949   0.52532   -0.259821           
         C         C         0.41273   0.84658   0.45028   0.207268  
         C         C         0.59372   0.15202   0.54265   0.212933  
         C         C         0.63357   0.19179   0.41315   -0.160178           
         C         C         0.65062   0.23570   0.41843   -0.139809           
         C         C         0.62988   0.24114   0.55423   0.059930  
         C         C         0.59033   0.20148   0.68381   -0.131170           
         C         C         0.57195   0.15724   0.67871   -0.181565           
         C         C         0.36958   0.80492   0.57125   -0.158739           
         C         C         0.35313   0.76263   0.55336   -0.128928           
         C         C         0.37756   0.76058   0.41326   0.059561  
         C         C         0.41900   0.80222   0.29143   -0.129773           
         C         C         0.43669   0.84487   0.30902   -0.183648           
         C         C         0.64809   0.28809   0.56014   -0.018366           
         C         C         0.35989   0.71417   0.40227   -0.015356           
         C         C         0.62177   0.30553   0.56335   -0.175151           
         C         C         0.32535   0.62433   0.40470   -0.171315           
         C         C         0.04485   0.52541   0.48860   -0.012533           
         C         C         0.01976   0.54682   0.51403   0.188941  
         C         C         0.97589   0.52526   0.52068   -0.245242           
         C         C         0.95587   0.48254   0.50282   -0.012153           
         C         C         0.98043   0.46071   0.48006   0.188946  
         C         C         0.02452   0.48244   0.47228   -0.242631           
         O         O         0.95741   0.41823   0.46996   -0.158924           
         C         C         0.97556   0.39144   0.47248   -0.182483           
         O         O         0.04170   0.58862   0.52912   -0.161845           
         C         C         0.01491   0.60903   0.56745   -0.182377           
         C         C         0.90954   0.45952   0.51223   0.085351  
         C         C         0.09111   0.54808   0.47921   0.087772  
         N         N         0.11663   0.53097   0.45005   -0.293322           
         N         N         0.88186   0.47454   0.54908   -0.290542           
         C         C         0.15972   0.55538   0.44897   0.192279  
         C         C         0.83871   0.44843   0.55053   0.196554  
         C         C         0.79173   0.43715   0.67027   -0.166313           
         C         C         0.74748   0.40747   0.68143   -0.128481           
         C         C         0.74916   0.38944   0.57162   0.064094  
         C         C         0.79670   0.40347   0.44759   -0.120418           
         C         C         0.84096   0.43248   0.43620   -0.186154           
         C         C         0.20323   0.55842   0.34265   -0.163565           
         C         C         0.24837   0.58652   0.32798   -0.128772           
         C         C         0.25107   0.61093   0.42182   0.073376  
         C         C         0.20602   0.60376   0.53707   -0.111837           
         C         C         0.16113   0.57689   0.55026   -0.188096           
         C         C         0.70319   0.35868   0.57800   -0.019767           
         C         C         0.29875   0.64141   0.40737   -0.016314           
         C         C         0.68950   0.31511   0.56621   0.145244  
         C         C         0.38461   0.69526   0.40352   -0.178318           
         O         O         0.71473   0.29885   0.57684   -0.245010           
         C         C         0.72007   0.23636   0.50371   -0.137172           
         N         N         0.74307   0.23203   0.57200   -0.187152           
         C         C         0.78389   0.27690   0.54931   -0.000500           
         C         C         0.79534   0.31021   0.42445   -0.269789           
         C         C         0.74302   0.28795   0.45678   0.178579  
         C         C         0.72338   0.18978   0.65817   0.602742  
         O         O         0.74948   0.19463   0.71442   -0.338487           
         C         C         0.74564   0.15377   0.77211   0.461020  
         C         C         0.75950   0.13320   0.65393   -0.491380           
         C         C         0.78662   0.17585   0.79745   -0.470570           
         C         C         0.69260   0.11867   0.91502   -0.496140           
         O         O         0.68764   0.15308   0.67763   -0.522224           
         O         O         0.29718   0.70688   0.37309   -0.254006           
         C         C         0.28441   0.76538   0.46154   -0.134185           
         C         C         0.26124   0.71370   0.48495   0.183447  
         C         C         0.21842   0.69647   0.46571   -0.264487           
         C         C         0.21036   0.73429   0.46441   -0.019633           
         N         N         0.26036   0.77590   0.41033   -0.182354           
         C         C         0.27907   0.82053   0.34591   0.596777  
         O         O         0.24983   0.82052   0.30834   -0.337911           
         C         C         0.26153   0.86499   0.24099   0.460259  
         C         C         0.22165   0.84846   0.21184   -0.468304           
         C         C         0.31534   0.89625   0.09804   -0.500955           
         C         C         0.25303   0.88851   0.35294   -0.493308           
         O         O         0.31722   0.85465   0.32478   -0.510233           
         C         C         0.83178   0.28209   0.50655   0.505909  
         O         O         0.84496   0.26205   0.40847   -0.190205           
         C         C         0.89199   0.26817   0.35600   -0.184303           
         O         O         0.85713   0.30438   0.54866   -0.471932           
         C         C         0.17088   0.72665   0.62059   0.500674  
         O         O         0.13867   0.73496   0.62559   -0.201404           
         C         C         0.10152   0.73000   0.77033   -0.191009           
         O         O         0.16891   0.71548   0.72820   -0.455424           
         H         H         0.48164   0.42198   0.46105   0.125641  
         H         H         0.50572   0.56470   0.55138   0.121189  
         H         H         0.51724   0.56419   0.73256   0.105857  
         H         H         0.57529   0.60337   0.55150   0.103776  
         H         H         0.57684   0.58216   0.69371   0.123022  
         H         H         0.40499   0.38096   0.49138   0.104547  
         H         H         0.45925   0.41423   0.30132   0.108946  
         H         H         0.39807   0.39803   0.35810   0.117925  
         H         H         0.56921   0.47903   0.56664   0.073857  
         H         H         0.42120   0.51078   0.43589   0.078813  
         H         H         0.54176   0.35870   0.43345   0.119925  
         H         H         0.58936   0.33027   0.43723   0.109133  
         H         H         0.61584   0.40578   0.70814   0.103332  
         H         H         0.57067   0.43565   0.69846   0.112942  
         H         H         0.50860   0.65943   0.31179   0.114179  
         H         H         0.46912   0.69425   0.28278   0.107409  
         H         H         0.32327   0.56126   0.54957   0.106861  
         H         H         0.36324   0.52650   0.57165   0.111573  
         H         H         0.68672   0.40828   0.59110   0.115113  
         H         H         0.59125   0.05309   0.43363   0.125018  
         H         H         0.41415   0.93758   0.60384   0.130206  
         H         H         0.36250   0.94353   0.78993   0.116509  
         H         H         0.38305   0.98400   0.63292   0.108102  
         H         H         0.35847   0.99118   0.80670   0.110156  
         H         H         0.64649   0.99854   0.23701   0.113111  
         H         H         0.62565   0.01431   0.39506   0.108457  
         H         H         0.64379   0.04717   0.22724   0.111543  
         H         H         0.50125   0.08099   0.66051   0.075018  
         H         H         0.50452   0.91178   0.36418   0.075889  
         H         H         0.64920   0.18674   0.30951   0.114661  
         H         H         0.68013   0.26595   0.31634   0.103730  
         H         H         0.57417   0.20551   0.78938   0.109118  
         H         H         0.54146   0.12662   0.77931   0.105029  
         H         H         0.35062   0.80652   0.67944   0.116626  
         H         H         0.32167   0.73076   0.64968   0.105329  
         H         H         0.43751   0.80134   0.18166   0.110250  
         H         H         0.46839   0.87700   0.21362   0.118550  
         H         H         0.58965   0.28402   0.55989   0.115769  
         H         H         0.31185   0.58954   0.40466   0.107963  
         H         H         0.95538   0.54024   0.54043   0.121775  
         H         H         0.04487   0.46733   0.45341   0.122475  
         H         H         0.97567   0.38755   0.56922   0.098999  
         H         H         0.01411   0.40728   0.37210   0.105372  
         H         H         0.94853   0.35759   0.47943   0.123680  
         H         H         0.03866   0.64150   0.57417   0.124420  
         H         H         0.97732   0.58644   0.67441   0.112210  
         H         H         0.01014   0.61613   0.48299   0.096285  
         H         H         0.89808   0.42736   0.49066   0.077898  
         H         H         0.10408   0.58120   0.49487   0.078544  
         H         H         0.79000   0.45017   0.75726   0.118712  
         H         H         0.71111   0.39740   0.77792   0.103536  
         H         H         0.79876   0.39219   0.35761   0.108408  
         H         H         0.87761   0.44375   0.33783   0.116383  
         H         H         0.20150   0.54056   0.26747   0.120525  
         H         H         0.28259   0.59087   0.24021   0.099239  
         H         H         0.20613   0.61904   0.61850   0.103281  
         H         H         0.12656   0.57148   0.64097   0.107246  
         H         H         0.41628   0.71584   0.40967   0.115816  
         H         H         0.67856   0.21400   0.58097   0.103210  
         H         H         0.73094   0.22651   0.40679   0.098854  
         H         H         0.77056   0.28504   0.64927   0.083387  
         H         H         0.82063   0.31036   0.31740   0.126424  
         H         H         0.81243   0.34536   0.42402   0.119906  
         H         H         0.74542   0.30039   0.36148   0.061023  
         H         H         0.73109   0.11785   0.63205   0.137168  
         H         H         0.76159   0.10625   0.69165   0.135533  
         H         H         0.79677   0.15998   0.55101   0.130196  
         H         H         0.82412   0.20172   0.69367   0.119739  
         H         H         0.78792   0.14921   0.84140   0.133364  
         H         H         0.77879   0.19299   0.87583   0.141360  
         H         H         0.69116   0.08999   0.96036   0.126256  
         H         H         0.66354   0.10479   0.89581   0.136496  
         H         H         0.68396   0.13462   0.99678   0.162615  
         H         H         0.32573   0.78778   0.37975   0.110940  
         H         H         0.27557   0.77079   0.56517   0.094430  
         H         H         0.24729   0.69460   0.59354   0.054493  
         H         H         0.18339   0.66282   0.54961   0.112101  
         H         H         0.23253   0.69309   0.35802   0.123054  
         H         H         0.19994   0.73759   0.39207   0.103512  
         H         H         0.22715   0.83052   0.13455   0.136423  
         H         H         0.22512   0.87818   0.16374   0.131117  
         H         H         0.18318   0.82457   0.31468   0.128501  
         H         H         0.32069   0.92717   0.04890   0.124554  
         H         H         0.32112   0.87901   0.01872   0.156490  
         H         H         0.34407   0.90691   0.11740   0.142092  
         H         H         0.21448   0.86502   0.45568   0.131105  
         H         H         0.25743   0.91936   0.30827   0.132557  
         H         H         0.28079   0.89909   0.37662   0.140027  
         H         H         0.89606   0.24913   0.28199   0.119933  
         H         H         0.88984   0.25388   0.44847   0.107228  
         H         H         0.92400   0.30503   0.29685   0.114922  
         H         H         0.12067   0.75220   0.81383   0.116272  
         H         H         0.07552   0.69391   0.84657   0.106866  
         H         H         0.08101   0.74039   0.75377   0.117500 

