
##########################################################################
#               Crystallographic Information Format file
#               Produced by PyCifRW module
#
#  This is a CIF file.  CIF has been adopted by the International
#  Union of Crystallography as the standard for data archiving and
#  transmission.
#
#  For information on this file format, follow the CIF links at
#  http://www.iucr.org
##########################################################################

data_image0

_cell_length_a                          36.6699
_cell_length_b                          35.9964
_cell_length_c                          8.02336
_cell_angle_alpha                       87.3695
_cell_angle_beta                        88.7238
_cell_angle_gamma                       119.64
_symmetry_space_group_name_H-M          'P 1'
_space_group_name_Hall                  'P 1'
loop_
  _atom_site_type_symbol
  _atom_site_label
  _atom_site_fract_x
  _atom_site_fract_y
  _atom_site_fract_z
  _atom_site_charge
         C         C         0.46752   0.50301   0.87567   -0.008425           
         C         C         0.45438   0.45994   0.84369   0.197724  
         C         C         0.47934   0.44207   0.88140   -0.200152           
         C         C         0.51880   0.46663   0.94862   -0.013156           
         C         C         0.53211   0.50976   0.97952   0.198909  
         C         C         0.50662   0.52732   0.94532   -0.218359           
         O         O         0.57083   0.53364   0.04894   -0.203979           
         C         C         0.60040   0.57042   0.94343   -0.191316           
         O         O         0.41595   0.43514   0.77360   -0.214672           
         C         C         0.38075   0.41687   0.89395   -0.185158           
         C         C         0.54548   0.44846   0.98896   0.088224  
         C         C         0.44129   0.52188   0.83596   0.083231  
         N         N         0.44669   0.55571   0.90682   -0.298502           
         N         N         0.53284   0.40813   0.98053   -0.280957           
         C         C         0.42171   0.57435   0.87283   0.198464  
         C         C         0.56128   0.39381   0.01475   0.203317  
         C         C         0.54635   0.35460   0.10838   -0.157033           
         C         C         0.57327   0.33893   0.14567   -0.124896           
         C         C         0.61571   0.36116   0.08748   0.054484  
         C         C         0.63027   0.39987   0.99098   -0.124254           
         C         C         0.60364   0.41609   0.95480   -0.178221           
         C         C         0.43636   0.61558   0.92932   -0.148218           
         C         C         0.41374   0.63688   0.90707   -0.132257           
         C         C         0.37508   0.61759   0.83032   0.062085  
         C         C         0.36024   0.57618   0.77493   -0.123207           
         C         C         0.38302   0.55492   0.79507   -0.168055           
         C         C         0.64377   0.34377   0.12465   0.082310  
         C         C         0.35055   0.63990   0.81543   0.078128  
         C         C         0.68542   0.37055   0.16381   -0.184663           
         C         C         0.30502   0.68362   0.81140   -0.187428           
         C         C         0.48608   0.95671   0.83704   -0.006783           
         C         C         0.52964   0.98081   0.86316   0.188884  
         C         C         0.54616   0.02061   0.92929   -0.226105           
         C         C         0.52056   0.03816   0.96972   -0.009126           
         C         C         0.47691   0.01393   0.94414   0.189673  
         C         C         0.46042   0.97416   0.87775   -0.233138           
         O         O         0.45279   0.03169   0.99171   -0.176219           
         C         C         0.41070   0.01147   0.93682   -0.190276           
         O         O         0.55374   0.96271   0.81898   -0.177741           
         C         C         0.59248   0.97762   0.90146   -0.191057           
         C         C         0.53919   0.08149   0.02519   0.084032  
         C         C         0.46781   0.91310   0.78608   0.085143  
         N         N         0.42764   0.88888   0.77491   -0.285163           
         N         N         0.57916   0.10391   0.04566   -0.287120           
         C         C         0.41130   0.84488   0.76225   0.197976  
         C         C         0.59680   0.14662   0.08579   0.203651  
         C         C         0.63840   0.17457   0.02505   -0.154871           
         C         C         0.65776   0.21814   0.04844   -0.137306           
         C         C         0.63724   0.23593   0.13694   0.064267  
         C         C         0.59634   0.20739   0.20483   -0.122240           
         C         C         0.57633   0.16377   0.17942   -0.175625           
         C         C         0.37332   0.82141   0.68291   -0.153149           
         C         C         0.35386   0.77700   0.68279   -0.127096           
         C         C         0.37109   0.75416   0.76387   0.055058  
         C         C         0.40938   0.77777   0.84047   -0.125038           
         C         C         0.42913   0.82213   0.84034   -0.175490           
         C         C         0.65605   0.28289   0.15238   0.029695  
         C         C         0.34879   0.70690   0.78228   0.080211  
         C         C         0.62965   0.29998   0.11969   -0.184249           
         C         C         0.30673   0.61748   0.84355   -0.185599           
         C         C         0.04271   0.54065   0.11129   -0.009638           
         C         C         0.01818   0.56103   0.12385   0.188901  
         C         C         0.97612   0.53740   0.17810   -0.233301           
         C         C         0.95739   0.49336   0.22364   -0.005381           
         C         C         0.98272   0.47368   0.22256   0.192095  
         C         C         0.02438   0.49706   0.16334   -0.228859           
         O         O         0.96372   0.43143   0.28138   -0.169054           
         C         C         0.98276   0.40730   0.22473   -0.190592           
         O         O         0.03808   0.60418   0.07524   -0.177854           
         C         C         0.01842   0.62727   0.13493   -0.188104           
         C         C         0.91218   0.46674   0.25019   0.088628  
         C         C         0.08628   0.56434   0.04820   0.088832  
         N         N         0.10834   0.54553   0.03004   -0.287119           
         N         N         0.88648   0.48169   0.24260   -0.292580           
         C         C         0.15099   0.57019   0.98165   0.200577  
         C         C         0.84347   0.45141   0.25119   0.205473  
         C         C         0.81670   0.46021   0.15550   -0.163542           
         C         C         0.77499   0.42891   0.14112   -0.126041           
         C         C         0.75741   0.38814   0.22688   0.056182  
         C         C         0.78355   0.38146   0.33525   -0.114897           
         C         C         0.82554   0.41201   0.34636   -0.176353           
         C         C         0.16933   0.55128   0.88626   -0.156436           
         C         C         0.21191   0.57374   0.83883   -0.126297           
         C         C         0.23804   0.61553   0.88799   0.050236  
         C         C         0.21971   0.63403   0.98567   -0.129034           
         C         C         0.17705   0.61195   0.03210   -0.175832           
         C         C         0.71333   0.35533   0.19736   0.046116  
         C         C         0.28355   0.63897   0.84353   0.083235  
         C         C         0.69825   0.31050   0.19297   -0.004336           
         C         C         0.37106   0.68450   0.78343   -0.188352           
         C         C         0.72466   0.29084   0.24199   -0.044985           
         C         C         0.77046   0.24057   0.16041   -0.109046           
         C         C         0.78722   0.28849   0.18958   0.150854  
         C         C         0.83104   0.31166   0.09835   -0.272237           
         C         C         0.83975   0.27442   0.05692   0.007745  
         N         N         0.80731   0.23488   0.14755   -0.393794           
         C         C         0.88456   0.28598   0.08498   0.572912  
         O         O         0.88837   0.26292   0.21649   -0.465667           
         O         O         0.91500   0.31358   0.00087   -0.507202           
         O         O         0.76126   0.30493   0.12905   -0.241833           
         H         H         0.46881   0.40881   0.85830   0.138023  
         H         H         0.51628   0.56022   0.97135   0.129936  
         H         H         0.62937   0.58593   0.01113   0.106984  
         H         H         0.58898   0.59314   0.91960   0.103363  
         H         H         0.60630   0.56024   0.82341   0.104679  
         H         H         0.38220   0.39320   0.98113   0.105870  
         H         H         0.35250   0.40134   0.82198   0.105755  
         H         H         0.38004   0.44173   0.96651   0.095883  
         H         H         0.57661   0.47077   0.03195   0.067339  
         H         H         0.41777   0.50600   0.74317   0.068171  
         H         H         0.51375   0.33777   0.15553   0.119485  
         H         H         0.56176   0.30946   0.22416   0.104993  
         H         H         0.66249   0.41654   0.93886   0.105222  
         H         H         0.61486   0.44514   0.87395   0.107988  
         H         H         0.46547   0.62982   0.99431   0.115418  
         H         H         0.42504   0.66812   0.95679   0.107681  
         H         H         0.33075   0.56101   0.71241   0.104877  
         H         H         0.37065   0.52304   0.75009   0.108512  
         H         H         0.69631   0.40446   0.17285   0.102110  
         H         H         0.28751   0.70073   0.81417   0.101954  
         H         H         0.57944   0.04019   0.94890   0.122749  
         H         H         0.42710   0.95421   0.86002   0.122315  
         H         H         0.39171   0.97870   0.99416   0.106148  
         H         H         0.41099   0.01067   0.79997   0.106132  
         H         H         0.39744   0.03118   0.97733   0.113445  
         H         H         0.61592   0.01040   0.85547   0.102940  
         H         H         0.60384   0.95562   0.87104   0.112556  
         H         H         0.58707   0.97643   0.03763   0.107494  
         H         H         0.51804   0.09467   0.03946   0.068622  
         H         H         0.48972   0.90112   0.76564   0.069574  
         H         H         0.65426   0.16142   0.95251   0.113662  
         H         H         0.68918   0.23899   0.99390   0.096677  
         H         H         0.58040   0.21977   0.28139   0.106555  
         H         H         0.54505   0.14252   0.23608   0.112238  
         H         H         0.35989   0.83890   0.61994   0.117249  
         H         H         0.32502   0.75959   0.61754   0.105315  
         H         H         0.42222   0.76072   0.91082   0.103634  
         H         H         0.45690   0.83916   0.91182   0.108440  
         H         H         0.59793   0.27881   0.08263   0.103839  
         H         H         0.29074   0.58323   0.87700   0.104003  
         H         H         0.95575   0.55133   0.17957   0.123733  
         H         H         0.04442   0.48284   0.15647   0.122762  
         H         H         0.96100   0.37407   0.26900   0.119069  
         H         H         0.01341   0.41793   0.27892   0.098813  
         H         H         0.98659   0.41027   0.08770   0.107464  
         H         H         0.98954   0.61938   0.07028   0.099856  
         H         H         0.04139   0.66126   0.10851   0.113778  
         H         H         0.01104   0.62038   0.27019   0.103528  
         H         H         0.90065   0.43220   0.26388   0.064628  
         H         H         0.09926   0.59861   0.01513   0.071450  
         H         H         0.83006   0.49066   0.08239   0.118132  
         H         H         0.75639   0.43549   0.05344   0.102796  
         H         H         0.77113   0.35287   0.41852   0.099013  
         H         H         0.84440   0.40616   0.43529   0.104063  
         H         H         0.14908   0.51924   0.84618   0.117324  
         H         H         0.22513   0.55927   0.75891   0.105495  
         H         H         0.23971   0.66534   0.03267   0.105272  
         H         H         0.16406   0.62587   0.11589   0.109232  
         H         H         0.40491   0.70200   0.75790   0.100855  
         H         H         0.70554   0.25592   0.24434   0.062406  
         H         H         0.73534   0.29887   0.36875   0.065621  
         H         H         0.75440   0.23360   0.04201   0.083741  
         H         H         0.74798   0.21825   0.25834   0.099443  
         H         H         0.79037   0.29335   0.32390   0.044076  
         H         H         0.85507   0.33504   0.17529   0.115449  
         H         H         0.83065   0.32951   0.98439   0.119152  
         H         H         0.83647   0.27007   0.92195   0.072518  
         H         H         0.81614   0.23166   0.26530   0.230353  
         H         H         0.91853   0.27567   0.23208   0.385064  
         C         C         0.47099   0.50576   0.37515   -0.006288           
         C         C         0.45738   0.46278   0.34003   0.196982  
         C         C         0.48159   0.44404   0.37817   -0.199705           
         C         C         0.52079   0.46765   0.44858   -0.014753           
         C         C         0.53473   0.51086   0.48075   0.200712  
         C         C         0.50991   0.52922   0.44699   -0.220356           
         O         O         0.57356   0.53422   0.54985   -0.204842           
         C         C         0.60326   0.57120   0.44578   -0.188488           
         O         O         0.41932   0.43901   0.26599   -0.214041           
         C         C         0.38361   0.42046   0.38388   -0.186544           
         C         C         0.54670   0.44862   0.48988   0.088435  
         C         C         0.44541   0.52541   0.33611   0.081148  
         N         N         0.45087   0.55891   0.40982   -0.297133           
         N         N         0.53379   0.40828   0.47896   -0.280657           
         C         C         0.42576   0.57750   0.37749   0.197851  
         C         C         0.56205   0.39373   0.51420   0.203480  
         C         C         0.54708   0.35439   0.60708   -0.157501           
         C         C         0.57412   0.33892   0.64558   -0.124071           
         C         C         0.61672   0.36143   0.58932   0.053773  
         C         C         0.63129   0.40020   0.49338   -0.123686           
         C         C         0.60453   0.41619   0.45588   -0.179041           
         C         C         0.43987   0.61846   0.43592   -0.147914           
         C         C         0.41679   0.63932   0.41446   -0.133282           
         C         C         0.37830   0.61986   0.33646   0.062058  
         C         C         0.36400   0.57870   0.27949   -0.122924           
         C         C         0.38717   0.55789   0.29916   -0.166816           
         C         C         0.64486   0.34413   0.62687   0.081177  
         C         C         0.35336   0.64171   0.32081   0.077209  
         C         C         0.68647   0.37068   0.66762   -0.184148           
         C         C         0.30694   0.68446   0.31244   -0.184404           
         C         C         0.48608   0.95768   0.34142   -0.007071           
         C         C         0.52950   0.98139   0.37157   0.190639  
         C         C         0.54591   0.02129   0.43643   -0.230054           
         C         C         0.52026   0.03895   0.47420   -0.009511           
         C         C         0.47676   0.01506   0.44614   0.188193  
         C         C         0.46045   0.97536   0.37923   -0.232697           
         O         O         0.45279   0.03316   0.49150   -0.176163           
         C         C         0.41089   0.01324   0.43480   -0.187674           
         O         O         0.55329   0.96257   0.33371   -0.176995           
         C         C         0.59494   0.98241   0.39403   -0.191009           
         C         C         0.53911   0.08227   0.52924   0.083544  
         C         C         0.46804   0.91431   0.28846   0.084585  
         N         N         0.42795   0.88998   0.27525   -0.286387           
         N         N         0.57907   0.10418   0.55048   -0.285104           
         C         C         0.41206   0.84608   0.26171   0.197458  
         C         C         0.59704   0.14695   0.58946   0.204274  
         C         C         0.63856   0.17460   0.52713   -0.157901           
         C         C         0.65803   0.21823   0.54913   -0.135463           
         C         C         0.63774   0.23617   0.63811   0.062434  
         C         C         0.59696   0.20794   0.70743   -0.120270           
         C         C         0.57679   0.16428   0.68313   -0.176904           
         C         C         0.37388   0.82222   0.18414   -0.153520           
         C         C         0.35476   0.77782   0.18450   -0.128069           
         C         C         0.37256   0.75538   0.26449   0.052518  
         C         C         0.41103   0.77939   0.33931   -0.124468           
         C         C         0.43044   0.82372   0.33853   -0.175199           
         C         C         0.65677   0.28310   0.65351   0.029124  
         C         C         0.35071   0.70818   0.28432   0.081114  
         C         C         0.63061   0.30038   0.62026   -0.183561           
         C         C         0.30951   0.61886   0.34822   -0.184173           
         C         C         0.04378   0.53896   0.60084   -0.008821           
         C         C         0.01877   0.55874   0.61557   0.187529  
         C         C         0.97694   0.53461   0.67240   -0.232877           
         C         C         0.95878   0.49060   0.71679   -0.005607           
         C         C         0.98446   0.47132   0.71104   0.193954  
         C         C         0.02600   0.49527   0.65088   -0.232495           
         O         O         0.96567   0.42893   0.76696   -0.169218           
         C         C         0.98646   0.40583   0.71968   -0.185874           
         O         O         0.03784   0.60186   0.56689   -0.177840           
         C         C         0.01761   0.62412   0.62979   -0.188372           
         C         C         0.91367   0.46383   0.74762   0.087442  
         C         C         0.08738   0.56338   0.53851   0.089129  
         N         N         0.11014   0.54528   0.52208   -0.286962           
         N         N         0.88817   0.47908   0.74515   -0.291734           
         C         C         0.15285   0.57028   0.47551   0.200850  
         C         C         0.84504   0.44944   0.75643   0.205227  
         C         C         0.81842   0.45944   0.66524   -0.163705           
         C         C         0.77645   0.42885   0.65084   -0.124858           
         C         C         0.75841   0.38759   0.73271   0.055444  
         C         C         0.78446   0.37987   0.83802   -0.113876           
         C         C         0.82671   0.40964   0.84889   -0.176396           
         C         C         0.17198   0.55140   0.38462   -0.154968           
         C         C         0.21472   0.57407   0.34034   -0.128565           
         C         C         0.24026   0.61613   0.38791   0.051952  
         C         C         0.22115   0.63464   0.48098   -0.128774           
         C         C         0.17833   0.61231   0.52440   -0.174919           
         C         C         0.71423   0.35523   0.70147   0.044550  
         C         C         0.28587   0.63987   0.34590   0.081695  
         C         C         0.69888   0.31036   0.69556   -0.002943           
         C         C         0.37344   0.68625   0.28776   -0.189631           
         C         C         0.72472   0.29007   0.74437   -0.046453           
         C         C         0.77313   0.24221   0.61855   -0.110101           
         C         C         0.78678   0.28646   0.68841   0.153724  
         C         C         0.83291   0.31541   0.62459   -0.264150           
         C         C         0.84511   0.28552   0.53261   0.002755  
         N         N         0.81148   0.24093   0.57137   -0.379266           
         C         C         0.88832   0.29388   0.57436   0.571998  
         O         O         0.88733   0.26632   0.69956   -0.483881           
         O         O         0.92111   0.32276   0.50848   -0.494025           
         O         O         0.76187   0.30485   0.63421   -0.247177           
         H         H         0.47074   0.41088   0.35233   0.138675  
         H         H         0.52002   0.56212   0.47441   0.129948  
         H         H         0.59270   0.59482   0.42845   0.102635  
         H         H         0.60802   0.56148   0.32288   0.105172  
         H         H         0.63268   0.58546   0.51090   0.106693  
         H         H         0.35568   0.40579   0.30976   0.105058  
         H         H         0.38301   0.44507   0.45853   0.095613  
         H         H         0.38427   0.39604   0.46936   0.108091  
         H         H         0.57762   0.47033   0.53615   0.066543  
         H         H         0.42222   0.51031   0.24152   0.068994  
         H         H         0.51437   0.33725   0.65298   0.119649  
         H         H         0.56254   0.30939   0.72374   0.104912  
         H         H         0.66365   0.41712   0.44294   0.105390  
         H         H         0.61580   0.44530   0.37537   0.108456  
         H         H         0.46889   0.63291   0.50151   0.114962  
         H         H         0.42761   0.67038   0.46523   0.106778  
         H         H         0.33472   0.56344   0.21562   0.105770  
         H         H         0.37527   0.52621   0.25292   0.107509  
         H         H         0.69738   0.40455   0.67781   0.101880  
         H         H         0.28905   0.70119   0.31314   0.100637  
         H         H         0.57906   0.04092   0.45800   0.122458  
         H         H         0.42727   0.95585   0.35802   0.122242  
         H         H         0.39153   0.98058   0.49251   0.105302  
         H         H         0.41144   0.01228   0.29806   0.103947  
         H         H         0.39788   0.03330   0.47348   0.113131  
         H         H         0.61543   0.01370   0.32704   0.105018  
         H         H         0.60690   0.96056   0.36974   0.113582  
         H         H         0.59415   0.98639   0.52913   0.108420  
         H         H         0.51838   0.09596   0.54249   0.069488  
         H         H         0.49010   0.90252   0.26803   0.069260  
         H         H         0.65415   0.16118   0.45459   0.114072  
         H         H         0.68932   0.23905   0.49334   0.095307  
         H         H         0.58130   0.22056   0.78426   0.106430  
         H         H         0.54560   0.14312   0.74066   0.112516  
         H         H         0.35996   0.83939   0.12245   0.117815  
         H         H         0.32573   0.76012   0.12071   0.108221  
         H         H         0.42429   0.76264   0.40904   0.103749  
         H         H         0.45839   0.84102   0.40877   0.108794  
         H         H         0.59900   0.27938   0.58164   0.104201  
         H         H         0.29388   0.58464   0.38213   0.103375  
         H         H         0.95626   0.54814   0.67729   0.123044  
         H         H         0.04645   0.48159   0.64077   0.121847  
         H         H         0.96563   0.37275   0.76828   0.116797  
         H         H         0.01722   0.41850   0.77499   0.099237  
         H         H         0.99029   0.40713   0.58308   0.107606  
         H         H         0.03937   0.65818   0.59783   0.112597  
         H         H         0.01199   0.61810   0.76617   0.106739  
         H         H         0.98763   0.61464   0.57130   0.099849  
         H         H         0.90208   0.42926   0.75994   0.066933  
         H         H         0.09970   0.59754   0.50524   0.071307  
         H         H         0.83213   0.49024   0.59446   0.118130  
         H         H         0.75801   0.43642   0.56585   0.103429  
         H         H         0.77183   0.35089   0.91893   0.099195  
         H         H         0.84546   0.40274   0.93483   0.106378  
         H         H         0.15225   0.51911   0.34594   0.117388  
         H         H         0.22857   0.55953   0.26416   0.106206  
         H         H         0.24064   0.66618   0.52700   0.105240  
         H         H         0.16473   0.62629   0.60497   0.110106  
         H         H         0.40732   0.70404   0.26303   0.100763  
         H         H         0.70545   0.25523   0.74259   0.063930  
         H         H         0.73465   0.29708   0.87254   0.065811  
         H         H         0.75484   0.23938   0.50859   0.078578  
         H         H         0.75312   0.21511   0.70730   0.100338  
         H         H         0.78465   0.28333   0.82561   0.039070  
         H         H         0.85334   0.33022   0.72792   0.109380  
         H         H         0.83558   0.34156   0.54003   0.128979  
         H         H         0.84736   0.29343   0.39783   0.066435  
         H         H         0.81973   0.22772   0.66824   0.245966  
         H         H         0.91616   0.27795   0.73458   0.391843 

