
##########################################################################
#               Crystallographic Information Format file
#               Produced by PyCifRW module
#
#  This is a CIF file.  CIF has been adopted by the International
#  Union of Crystallography as the standard for data archiving and
#  transmission.
#
#  For information on this file format, follow the CIF links at
#  http://www.iucr.org
##########################################################################

data_image0

_cell_length_a                          35.4704
_cell_length_b                          37.2093
_cell_length_c                          8.17401
_cell_angle_alpha                       115.899
_cell_angle_beta                        90.4692
_cell_angle_gamma                       117.815
_symmetry_space_group_name_H-M          'P 1'
_space_group_name_Hall                  'P 1'
loop_
  _atom_site_type_symbol
  _atom_site_label
  _atom_site_fract_x
  _atom_site_fract_y
  _atom_site_fract_z
  _atom_site_charge
         C         C         0.48034   0.53244   0.04498   -0.000888           
         C         C         0.46194   0.49018   0.05103   0.192400  
         C         C         0.48945   0.47663   0.09304   -0.230232           
         C         C         0.53564   0.50441   0.13188   -0.009918           
         C         C         0.55404   0.54704   0.12894   0.184734  
         C         C         0.52651   0.56012   0.08356   -0.236332           
         O         O         0.59962   0.57361   0.17448   -0.178009           
         C         C         0.61850   0.61625   0.16794   -0.182509           
         O         O         0.41647   0.46418   0.01084   -0.173300           
         C         C         0.39787   0.42292   0.02821   -0.189353           
         C         C         0.56434   0.48997   0.17257   0.084654  
         C         C         0.45288   0.54817   0.00275   0.088223  
         N         N         0.47084   0.58675   -0.00381  -0.293329           
         N         N         0.54924   0.44980   0.16374   -0.291377           
         C         C         0.44445   0.60111   0.94951   0.209011  
         C         C         0.57922   0.43655   0.18408   0.199371  
         C         C         0.56498   0.39962   0.22312   -0.155148           
         C         C         0.59194   0.38240   0.23217   -0.125692           
         C         C         0.63415   0.40090   0.20014   0.056138  
         C         C         0.64805   0.43775   0.16043   -0.124549           
         C         C         0.62155   0.45527   0.15240   -0.173918           
         C         C         0.46413   0.64932   0.01294   -0.158970           
         C         C         0.43993   0.66667   0.97546   -0.137973           
         C         C         0.39533   0.63650   0.87011   0.061619  
         C         C         0.37657   0.58813   0.79878   -0.114476           
         C         C         0.40034   0.57061   0.83729   -0.169765           
         C         C         0.66232   0.38127   0.19421   0.060489  
         C         C         0.36778   0.65437   0.84389   0.070419  
         C         C         0.70789   0.40780   0.21949   -0.178729           
         C         C         0.31500   0.69114   0.83424   -0.183250           
         C         C         0.48390   0.95747   0.83305   -0.002357           
         C         C         0.52155   0.97860   0.77325   0.181656  
         C         C         0.53924   0.02410   0.80868   -0.211373           
         C         C         0.51954   0.05009   0.89919   -0.011683           
         C         C         0.48140   0.02865   0.95588   0.208371  
         C         C         0.46458   0.98361   0.92559   -0.219043           
         O         O         0.46239   0.05448   0.04630   -0.191056           
         C         C         0.41523   0.03026   0.97194   -0.186735           
         O         O         0.54083   0.95341   0.67350   -0.201363           
         C         C         0.57238   0.95546   0.79390   -0.186037           
         C         C         0.53804   0.09782   0.93613   0.090331  
         C         C         0.46556   0.91012   0.80144   0.090739  
         N         N         0.43480   0.89367   0.87820   -0.294838           
         N         N         0.57450   0.11860   0.89503   -0.299262           
         C         C         0.41803   0.84912   0.85686   0.200621  
         C         C         0.59494   0.16606   0.94890   0.197110  
         C         C         0.62903   0.18299   0.86686   -0.153734           
         C         C         0.65326   0.23012   0.91817   -0.120526           
         C         C         0.64565   0.26301   0.05888   0.070528  
         C         C         0.61157   0.24603   0.14146   -0.131299           
         C         C         0.58651   0.19877   0.08802   -0.166773           
         C         C         0.38106   0.83288   0.92677   -0.147738           
         C         C         0.36187   0.78938   0.91564   -0.131709           
         C         C         0.37877   0.75999   0.83457   0.059689  
         C         C         0.41603   0.77655   0.76643   -0.125369           
         C         C         0.43560   0.82013   0.77865   -0.159373           
         C         C         0.67009   0.31357   0.11734   -0.016280           
         C         C         0.35928   0.71472   0.83032   0.080079  
         C         C         0.64456   0.33448   0.14630   -0.168333           
         C         C         0.32350   0.63178   0.84764   -0.182424           
         C         C         0.05547   0.54855   0.98243   -0.008157           
         C         C         0.03026   0.57037   0.03134   0.186020  
         C         C         0.99098   0.54951   0.07614   -0.237003           
         C         C         0.97477   0.50619   0.06815   -0.012602           
         C         C         -0.00084  0.48352   0.01366   0.196431  
         C         C         0.03920   0.50520   0.97408   -0.228734           
         O         O         0.98089   0.44072   0.00272   -0.168473           
         C         C         0.00472   0.41687   0.94322   -0.180495           
         O         O         0.04719   0.61221   0.03223   -0.171609           
         C         C         0.02383   0.63612   0.09847   -0.183708           
         C         C         0.93243   0.48362   0.10460   0.086362  
         C         C         0.09795   0.57134   0.94564   0.083218  
         N         N         0.12297   0.55379   0.91475   -0.278576           
         N         N         0.90949   0.50350   0.15921   -0.297484           
         C         C         0.16517   0.57907   0.89743   0.205555  
         C         C         0.86816   0.47742   0.18221   0.204377  
         C         C         0.83321   0.48203   0.13258   -0.165490           
         C         C         0.79055   0.45288   0.13247   -0.126412           
         C         C         0.78108   0.41954   0.18989   0.064457  
         C         C         0.81702   0.41818   0.25311   -0.123161           
         C         C         0.85958   0.44603   0.24845   -0.182152           
         C         C         0.18263   0.55360   0.77849   -0.150146           
         C         C         0.22468   0.57669   0.75779   -0.123435           
         C         C         0.25118   0.62592   0.85686   0.061729  
         C         C         0.23386   0.65139   0.97664   -0.130307           
         C         C         0.19167   0.62847   -0.00224  -0.183476           
         C         C         0.73505   0.38879   0.18530   -0.018486           
         C         C         0.29680   0.64978   0.84293   0.077968  
         C         C         0.71598   0.34099   0.13570   0.157382  
         C         C         0.38508   0.69550   0.83358   -0.181414           
         O         O         0.74100   0.32004   0.08038   -0.261874           
         C         C         0.74205   0.26456   0.17448   -0.121877           
         C         C         0.76341   0.31491   0.21413   0.182248  
         C         C         0.81005   0.32607   0.18573   -0.265999           
         C         C         0.80862   0.27945   0.09515   -0.013723           
         N         N         0.76068   0.24349   0.02609   -0.351577           
         C         C         0.83382   0.27492   0.22944   0.559148  
         O         O         0.82508   0.23004   0.14825   -0.501987           
         O         O         0.85878   0.30559   0.38684   -0.478121           
         H         H         0.47681   0.44451   0.09853   0.123056  
         H         H         0.53901   0.59212   0.07736   0.118871  
         H         H         0.60801   0.60915   0.02475   0.103301  
         H         H         0.65435   0.63194   0.20805   0.114887  
         H         H         0.60944   0.64037   0.26808   0.105375  
         H         H         0.40571   0.39739   0.92925   0.100744  
         H         H         0.36205   0.40778   0.99273   0.114893  
         H         H         0.40947   0.43145   0.17290   0.105158  
         H         H         0.59983   0.51509   0.20944   0.066400  
         H         H         0.41724   0.52664   0.98122   0.069657  
         H         H         0.53247   0.38518   0.24834   0.120629  
         H         H         0.58011   0.35444   0.26609   0.106863  
         H         H         0.67930   0.45114   0.12449   0.101726  
         H         H         0.63258   0.48161   0.10954   0.108574  
         H         H         0.49847   0.67257   0.09588   0.111977  
         H         H         0.45548   0.70421   0.03064   0.102507  
         H         H         0.34294   0.56405   0.70828   0.105065  
         H         H         0.38520   0.53299   0.77740   0.110689  
         H         H         0.72326   0.44477   0.26424   0.103567  
         H         H         0.29415   0.70481   0.82790   0.102332  
         H         H         0.56832   0.04030   0.76371   0.130527  
         H         H         0.43589   0.96705   0.97161   0.121492  
         H         H         0.40720   0.01893   0.82093   0.106147  
         H         H         0.40575   0.05576   0.05201   0.111430  
         H         H         0.39738   -0.00025  0.99173   0.093144  
         H         H         0.59881   0.99195   0.89103   0.100872  
         H         H         0.58648   0.93633   0.70073   0.111108  
         H         H         0.55630   0.93866   0.87645   0.091183  
         H         H         0.51969   0.11473   0.00187   0.072281  
         H         H         0.47941   0.89026   0.71112   0.065857  
         H         H         0.63525   0.15767   0.75921   0.117173  
         H         H         0.67901   0.24198   0.85132   0.097177  
         H         H         0.60604   0.27083   0.25590   0.104312  
         H         H         0.56176   0.18763   0.16087   0.111712  
         H         H         0.36847   0.85590   0.99298   0.116157  
         H         H         0.33452   0.77885   0.97797   0.109216  
         H         H         0.42936   0.75427   0.69979   0.099892  
         H         H         0.46448   0.83158   0.72557   0.106650  
         H         H         0.60909   0.31224   0.11900   0.105431  
         H         H         0.31047   0.60177   0.86896   0.106171  
         H         H         0.97052   0.56473   0.11327   0.117205  
         H         H         0.05946   0.48971   0.93666   0.127624  
         H         H         0.03686   0.43662   0.04640   0.102972  
         H         H         0.00910   0.41103   0.80253   0.105900  
         H         H         0.98378   0.38309   0.93620   0.110535  
         H         H         0.04173   0.66793   0.08813   0.115437  
         H         H         0.02368   0.64558   0.24602   0.101479  
         H         H         0.98945   0.61465   0.01141   0.104639  
         H         H         0.91989   0.44783   0.07619   0.070928  
         H         H         0.10768   0.60407   0.94644   0.071780  
         H         H         0.83973   0.50645   0.08224   0.117099  
         H         H         0.76358   0.45458   0.07935   0.100079  
         H         H         0.81183   0.39596   0.31217   0.097783  
         H         H         0.88669   0.44436   0.30038   0.106693  
         H         H         0.16191   0.51559   0.70038   0.117613  
         H         H         0.23719   0.55662   0.66051   0.104493  
         H         H         0.25460   0.68942   0.05929   0.104941  
         H         H         0.17939   0.64847   0.09710   0.109101  
         H         H         0.41965   0.71374   0.83470   0.097221  
         H         H         0.70605   0.24497   0.13106   0.101105  
         H         H         0.75216   0.26664   0.30715   0.074241  
         H         H         0.76432   0.33809   0.35662   0.051452  
         H         H         0.83556   0.35124   0.32067   0.111008  
         H         H         0.81753   0.34131   0.09353   0.115553  
         H         H         0.82372   0.27505   0.97618   0.089295  
         H         H         0.75560   0.21295   0.01396   0.242983  
         H         H         0.83738   0.22671   0.24606   0.356943  
         C         C         0.47545   0.50894   0.54645   -0.011193           
         C         C         0.45669   0.46676   0.55317   0.184434  
         C         C         0.48380   0.45302   0.59736   -0.236421           
         C         C         0.53002   0.48032   0.63555   -0.006687           
         C         C         0.54881   0.52247   0.62796   0.189953  
         C         C         0.52165   0.53599   0.58269   -0.229134           
         O         O         0.59426   0.54781   0.66723   -0.172913           
         C         C         0.61378   0.58904   0.64958   -0.186759           
         O         O         0.41107   0.44086   0.50905   -0.177976           
         C         C         0.39171   0.39812   0.51507   -0.183714           
         C         C         0.55801   0.46514   0.67735   0.085012  
         C         C         0.44735   0.52381   0.50283   0.082652  
         N         N         0.46302   0.56027   0.48177   -0.286196           
         N         N         0.54145   0.42501   0.67076   -0.297487           
         C         C         0.43390   0.57195   0.43540   0.205539  
         C         C         0.56920   0.40934   0.69161   0.199524  
         C         C         0.55190   0.37158   0.72708   -0.149467           
         C         C         0.57601   0.35133   0.73336   -0.128274           
         C         C         0.61838   0.36751   0.70180   0.060111  
         C         C         0.63572   0.40554   0.66829   -0.130662           
         C         C         0.61205   0.42624   0.66393   -0.171893           
         C         C         0.45038   0.61953   0.49711   -0.149306           
         C         C         0.42294   0.63404   0.46341   -0.121904           
         C         C         0.37808   0.60183   0.36246   0.064946  
         C         C         0.36243   0.55395   0.29129   -0.130567           
         C         C         0.38951   0.53917   0.32670   -0.176366           
         C         C         0.64352   0.34452   0.69009   0.064364  
         C         C         0.34845   0.61790   0.33791   0.072331  
         C         C         0.68944   0.36909   0.72255   -0.173190           
         C         C         0.29386   0.65245   0.32282   -0.182121           
         C         C         0.45882   0.92185   0.34235   -0.005756           
         C         C         0.49794   0.94334   0.29054   0.208625  
         C         C         0.51499   0.98828   0.31944   -0.225782           
         C         C         0.49395   0.01334   0.39995   -0.004041           
         C         C         0.45486   0.99176   0.45068   0.180945  
         C         C         0.43783   0.94697   0.42221   -0.215389           
         O         O         0.43299   0.01557   0.53085   -0.207662           
         C         C         0.40336   0.01016   0.38856   -0.188756           
         O         O         0.51769   0.91776   0.21387   -0.178228           
         C         C         0.56507   0.94426   0.25619   -0.183491           
         C         C         0.51256   0.06070   0.43351   0.086716  
         C         C         0.44164   0.87539   0.31697   0.087378  
         N         N         0.40978   0.85803   0.38799   -0.306766           
         N         N         0.54673   0.07943   0.37631   -0.295457           
         C         C         0.39430   0.81356   0.36590   0.199687  
         C         C         0.56649   0.12620   0.42081   0.200512  
         C         C         0.60018   0.14173   0.33499   -0.158404           
         C         C         0.62531   0.18868   0.38368   -0.122674           
         C         C         0.61882   0.22235   0.52562   0.067303  
         C         C         0.58336   0.20619   0.60382   -0.127213           
         C         C         0.55735   0.15928   0.55182   -0.171233           
         C         C         0.35560   0.79459   0.42221   -0.151789           
         C         C         0.33734   0.75077   0.40734   -0.129985           
         C         C         0.35717   0.72391   0.33766   0.066860  
         C         C         0.39632   0.74339   0.28487   -0.120027           
         C         C         0.41454   0.78696   0.29800   -0.172034           
         C         C         0.64594   0.27308   0.59158   -0.017467           
         C         C         0.33859   0.67817   0.32923   0.076523  
         C         C         0.62289   0.29680   0.63004   -0.171337           
         C         C         0.30347   0.59310   0.33120   -0.190525           
         C         C         0.03374   0.50983   0.46527   -0.013127           
         C         C         0.00812   0.53107   0.52506   0.200446  
         C         C         0.97043   0.50989   0.57953   -0.240898           
         C         C         0.95619   0.46676   0.57183   -0.008704           
         C         C         0.98139   0.44539   0.50906   0.183630  
         C         C         0.01943   0.46697   0.45841   -0.220696           
         O         O         0.96762   0.40345   0.50567   -0.187358           
         C         C         0.96035   0.36552   0.32457   -0.182325           
         O         O         0.02325   0.57241   0.52596   -0.169510           
         C         C         0.99576   0.59214   0.56591   -0.181758           
         C         C         0.91505   0.44277   0.61554   0.081123  
         C         C         0.07479   0.53283   0.41967   0.088594  
         N         N         0.09869   0.51401   0.36962   -0.301673           
         N         N         0.89095   0.46108   0.67236   -0.286329           
         C         C         0.14089   0.53923   0.35141   0.206103  
         C         C         0.84971   0.43451   0.69495   0.202118  
         C         C         0.81634   0.44231   0.65576   -0.152850           
         C         C         0.77275   0.41294   0.64550   -0.140636           
         C         C         0.76120   0.37760   0.69270   0.069411  
         C         C         0.79576   0.37420   0.75534   -0.112142           
         C         C         0.83879   0.40054   0.74963   -0.172493           
         C         C         0.15889   0.51359   0.23758   -0.159335           
         C         C         0.20199   0.53620   0.22461   -0.130924           
         C         C         0.22911   0.58541   0.32610   0.064943  
         C         C         0.21090   0.61091   0.43850   -0.120834           
         C         C         0.16788   0.58854   0.45204   -0.165285           
         C         C         0.71426   0.34742   0.67931   -0.018127           
         C         C         0.27583   0.61006   0.32348   0.077416  
         C         C         0.69223   0.29833   0.61091   0.165937  
         C         C         0.36521   0.65996   0.33461   -0.180988           
         O         O         0.71426   0.27464   0.53584   -0.262205           
         C         C         0.71401   0.20942   0.56022   -0.108587           
         C         C         0.73570   0.26310   0.64306   0.155805  
         C         C         0.78424   0.27880   0.63014   -0.287366           
         C         C         0.78470   0.23302   0.53652   0.003382  
         N         N         0.74972   0.20119   0.58811   -0.394814           
         C         C         0.82885   0.23934   0.59429   0.591064  
         O         O         0.84059   0.21473   0.44249   -0.492514           
         O         O         0.85308   0.26219   0.75301   -0.457053           
         H         H         0.47082   0.42096   0.60353   0.119113  
         H         H         0.53460   0.56764   0.57331   0.123735  
         H         H         0.60717   0.61544   0.75083   0.097542  
         H         H         0.60188   0.58079   0.50576   0.106626  
         H         H         0.64941   0.60289   0.68126   0.116383  
         H         H         0.35590   0.38277   0.47516   0.114337  
         H         H         0.40210   0.40513   0.65816   0.103422  
         H         H         0.40052   0.37379   0.41456   0.105185  
         H         H         0.59367   0.48953   0.71365   0.072508  
         H         H         0.41221   0.50288   0.49218   0.063370  
         H         H         0.51927   0.35917   0.75225   0.117744  
         H         H         0.56207   0.32293   0.76513   0.104373  
         H         H         0.66727   0.41726   0.63331   0.103756  
         H         H         0.62582   0.45393   0.62829   0.112028  
         H         H         0.48475   0.64481   0.57799   0.116949  
         H         H         0.43619   0.67126   0.52003   0.100380  
         H         H         0.32860   0.52798   0.20417   0.102328  
         H         H         0.37692   0.50197   0.26631   0.105953  
         H         H         0.70700   0.40673   0.77948   0.100219  
         H         H         0.27202   0.66466   0.31147   0.100113  
         H         H         0.54507   0.00579   0.28284   0.122706  
         H         H         0.40804   0.93041   0.46272   0.131624  
         H         H         0.42178   0.02605   0.30695   0.094312  
         H         H         0.38642   0.02816   0.46241   0.111276  
         H         H         0.37901   0.97282   0.29187   0.099421  
         H         H         0.57507   0.91833   0.20562   0.111803  
         H         H         0.57947   0.96776   0.40933   0.108219  
         H         H         0.57668   0.96469   0.18340   0.091758  
         H         H         0.49603   0.07894   0.50965   0.065981  
         H         H         0.45741   0.85673   0.23631   0.069056  
         H         H         0.60628   0.11592   0.23010   0.118235  
         H         H         0.65060   0.19978   0.31355   0.105537  
         H         H         0.57808   0.23158   0.71638   0.103295  
         H         H         0.53187   0.14896   0.62287   0.110300  
         H         H         0.34084   0.81576   0.48044   0.115985  
         H         H         0.30819   0.73792   0.45740   0.106631  
         H         H         0.41249   0.72360   0.23099   0.093913  
         H         H         0.44480   0.80051   0.25533   0.110272  
         H         H         0.58708   0.27610   0.59867   0.103961  
         H         H         0.29037   0.56165   0.34263   0.103318  
         H         H         0.95019   0.52518   0.62533   0.124786  
         H         H         0.03979   0.45169   0.41519   0.128978  
         H         H         0.99145   0.37126   0.28555   0.093705  
         H         H         0.93776   0.36094   0.21431   0.106853  
         H         H         0.94484   0.33404   0.33810   0.113592  
         H         H         0.01339   0.62395   0.55531   0.111320  
         H         H         0.99158   0.60129   0.70892   0.094365  
         H         H         0.96335   0.56799   0.46120   0.111022  
         H         H         0.90482   0.40744   0.58790   0.075565  
         H         H         0.08428   0.56661   0.43154   0.076388  
         H         H         0.82510   0.46978   0.62106   0.120146  
         H         H         0.74702   0.41658   0.59471   0.103151  
         H         H         0.78874   0.35148   0.81428   0.105941  
         H         H         0.86444   0.39585   0.79343   0.116418  
         H         H         0.13817   0.47556   0.16055   0.108619  
         H         H         0.21507   0.51574   0.13428   0.102793  
         H         H         0.23183   0.64885   0.52379   0.104543  
         H         H         0.15576   0.60907   0.54940   0.111095  
         H         H         0.39984   0.67896   0.33809   0.099725  
         H         H         0.69929   0.19165   0.40834   0.095479  
         H         H         0.68819   0.19441   0.62297   0.099895  
         H         H         0.73514   0.28039   0.79008   0.055275  
         H         H         0.80726   0.30188   0.77154   0.110631  
         H         H         0.79466   0.29802   0.55326   0.112063  
         H         H         0.77492   0.21629   0.38209   0.078357  
         H         H         0.75932   0.21465   0.73151   0.219661  
         H         H         0.86905   0.22084   0.49718   0.387471 

