
##########################################################################
#               Crystallographic Information Format file
#               Produced by PyCifRW module
#
#  This is a CIF file.  CIF has been adopted by the International
#  Union of Crystallography as the standard for data archiving and
#  transmission.
#
#  For information on this file format, follow the CIF links at
#  http://www.iucr.org
##########################################################################

data_image0

_cell_length_a                          36.9176
_cell_length_b                          36.5748
_cell_length_c                          8.47881
_cell_angle_alpha                       66.6546
_cell_angle_beta                        115.138
_cell_angle_gamma                       118.136
_symmetry_space_group_name_H-M          'P 1'
_space_group_name_Hall                  'P 1'
loop_
  _atom_site_type_symbol
  _atom_site_label
  _atom_site_fract_x
  _atom_site_fract_y
  _atom_site_fract_z
  _atom_site_charge
         C         C         0.49165   0.50984   0.09783   -0.010517           
         C         C         0.47783   0.46516   0.12141   0.187062  
         C         C         0.50263   0.44883   0.10245   -0.229651           
         C         C         0.54229   0.47561   0.06748   -0.007006           
         C         C         0.55756   0.51991   0.05789   0.187798  
         C         C         0.53206   0.53640   0.06962   -0.241848           
         O         O         0.59794   0.54450   0.03565   -0.173328           
         C         C         0.61555   0.58749   0.05253   -0.188934           
         O         O         0.43920   0.44050   0.15860   -0.173555           
         C         C         0.42991   0.39522   0.22763   -0.193759           
         C         C         0.56755   0.45879   0.04215   0.085163  
         C         C         0.46393   0.52860   0.09231   0.086457  
         N         N         0.47620   0.56971   0.06163   -0.295983           
         N         N         0.55627   0.41823   0.06137   -0.292287           
         C         C         0.44846   0.58793   0.04485   0.204524  
         C         C         0.58347   0.40388   0.04608   0.207855  
         C         C         0.56575   0.36295   0.01483   -0.145644           
         C         C         0.59088   0.34590   0.00289   -0.119498           
         C         C         0.63513   0.36859   0.02230   0.064751  
         C         C         0.65237   0.40978   0.05083   -0.120620           
         C         C         0.62772   0.42689   0.06509   -0.179379           
         C         C         0.45518   0.63023   0.93938   -0.156739           
         C         C         0.42860   0.65079   0.91011   -0.131438           
         C         C         0.39487   0.63040   0.98830   0.057258  
         C         C         0.38897   0.58848   0.09780   -0.123677           
         C         C         0.41504   0.56746   0.12526   -0.169766           
         C         C         0.66256   0.35085   0.01256   0.072844  
         C         C         0.36690   0.65237   0.95915   0.077341  
         C         C         0.70543   0.37538   0.01282   -0.179086           
         C         C         0.31346   0.69359   0.90393   -0.185314           
         C         C         0.48401   0.96431   0.92111   -0.001556           
         C         C         0.52701   0.99016   0.91674   0.188204  
         C         C         0.54482   0.03175   0.93494   -0.248464           
         C         C         0.52145   0.04920   0.96021   -0.018185           
         C         C         0.47794   0.02403   0.95803   0.198480  
         C         C         0.46013   0.98223   0.93999   -0.243048           
         O         O         0.45612   0.04302   0.97650   -0.170572           
         C         C         0.41204   0.01816   0.97341   -0.180387           
         O         O         0.54913   0.97145   0.89723   -0.171408           
         C         C         0.59082   0.99875   0.87502   -0.187324           
         C         C         0.54261   0.09188   0.99131   0.090914  
         C         C         0.46605   0.92006   0.91069   0.078808  
         N         N         0.42616   0.89603   0.90221   -0.295243           
         N         N         0.58378   0.11165   0.01603   -0.300699           
         C         C         0.41079   0.85314   0.89765   0.196650  
         C         C         0.60371   0.15480   0.01850   0.202494  
         C         C         0.64860   0.17105   0.09447   -0.154402           
         C         C         0.67154   0.21464   0.08517   -0.145294           
         C         C         0.65058   0.24426   -0.00384  0.065624  
         C         C         0.60565   0.22777   0.91592   -0.119096           
         C         C         0.58270   0.18441   0.92726   -0.165819           
         C         C         0.37173   0.82605   0.93814   -0.147825           
         C         C         0.35488   0.78252   0.94676   -0.137249           
         C         C         0.37527   0.76409   0.90881   0.064543  
         C         C         0.41355   0.79171   0.86100   -0.126145           
         C         C         0.43109   0.83495   0.85679   -0.174261           
         C         C         0.67252   0.29038   0.99424   0.011429  
         C         C         0.35723   0.71776   0.91840   0.067082  
         C         C         0.64748   0.30861   0.00324   -0.176273           
         C         C         0.32331   0.62922   0.94833   -0.175255           
         C         C         0.05110   0.53795   0.90920   -0.014222           
         C         C         0.02327   0.55609   0.89877   0.195860  
         C         C         0.98283   0.52997   0.92132   -0.247448           
         C         C         0.96879   0.48523   0.95723   -0.001262           
         C         C         0.99721   0.46711   0.97672   0.182641  
         C         C         0.03718   0.49316   0.94928   -0.203967           
         O         O         0.98576   0.42282   0.03239   -0.212934           
         C         C         0.96921   0.40264   0.88799   -0.179722           
         O         O         0.03877   0.59995   0.86733   -0.175540           
         C         C         0.01433   0.61751   0.89034   -0.182948           
         C         C         0.92556   0.45837   0.97287   0.084719  
         C         C         0.09367   0.56501   0.88784   0.087012  
         N         N         0.12045   0.54884   0.90835   -0.294924           
         N         N         0.89708   0.47484   0.92503   -0.273230           
         C         C         0.16258   0.57559   0.90502   0.199852  
         C         C         0.85681   0.44720   0.95133   0.211106  
         C         C         0.81957   0.45047   0.81110   -0.153812           
         C         C         0.77937   0.42121   0.82915   -0.132734           
         C         C         0.77503   0.38975   0.98972   0.063403  
         C         C         0.81212   0.38954   0.13499   -0.126044           
         C         C         0.85258   0.41698   0.11442   -0.156969           
         C         C         0.18564   0.56056   0.86455   -0.153919           
         C         C         0.22826   0.58454   0.86643   -0.125867           
         C         C         0.25020   0.62420   0.91280   0.052068  
         C         C         0.22723   0.63869   0.95674   -0.131567           
         C         C         0.18439   0.61524   0.95221   -0.173406           
         C         C         0.73136   0.35888   0.00218   0.027315  
         C         C         0.29598   0.64922   0.92134   0.080555  
         C         C         0.71577   0.31591   0.99207   0.034371  
         C         C         0.38350   0.69649   0.94589   -0.185059           
         C         C         0.74389   0.30221   0.95510   -0.241775           
         C         C         0.78307   0.29287   0.11136   0.040314  
         N         N         0.77764   0.24707   0.19143   -0.416720           
         C         C         0.80682   0.23817   0.14604   0.147775  
         N         N         0.83848   0.28066   0.09510   -0.130329           
         C         C         0.82327   0.31253   0.04870   0.404811  
         C         C         0.82628   0.20580   0.30173   0.222516  
         C         C         0.78913   0.16661   0.36436   -0.433285           
         C         C         0.86045   0.22741   0.45402   -0.439330           
         C         C         0.84741   0.18865   0.23806   -0.432511           
         C         C         0.87174   0.28918   0.02270   -0.263109           
         O         O         0.83972   0.34976   0.97071   -0.450386           
         H         H         0.49276   0.41496   0.11559   0.123700  
         H         H         0.54154   0.57029   0.05424   0.118254  
         H         H         0.61636   0.58805   0.18287   0.107767  
         H         H         0.59700   0.60660   0.94384   0.103725  
         H         H         0.64830   0.60085   0.04332   0.115104  
         H         H         0.42409   0.38026   0.12504   0.094891  
         H         H         0.40061   0.38233   0.26640   0.122732  
         H         H         0.45654   0.38914   0.34552   0.104921  
         H         H         0.59647   0.48271   0.00372   0.068615  
         H         H         0.43201   0.50646   0.10655   0.073212  
         H         H         0.53159   0.34508   -0.00144  0.115568  
         H         H         0.57539   0.31455   0.97468   0.101530  
         H         H         0.68615   0.42880   0.06402   0.099301  
         H         H         0.64310   0.45807   0.09501   0.110975  
         H         H         0.48086   0.64566   0.87698   0.115486  
         H         H         0.43335   0.68286   0.82259   0.103538  
         H         H         0.36444   0.57290   0.16660   0.108137  
         H         H         0.41049   0.53558   0.21422   0.112245  
         H         H         0.71998   0.40849   0.02049   0.105990  
         H         H         0.29228   0.70981   0.87461   0.100693  
         H         H         0.57765   0.05231   0.93401   0.118745  
         H         H         0.42760   0.96150   0.94519   0.121608  
         H         H         0.40910   0.98881   0.08254   0.107866  
         H         H         0.39262   0.01005   0.84306   0.095890  
         H         H         0.40114   0.03865   0.99378   0.119589  
         H         H         0.58875   0.02579   0.75668   0.103664  
         H         H         0.60252   0.97873   0.85611   0.117638  
         H         H         0.61316   0.01113   0.99437   0.101471  
         H         H         0.52248   0.10596   0.99386   0.076167  
         H         H         0.48884   0.90827   0.91482   0.071088  
         H         H         0.66532   0.14865   0.15946   0.108011  
         H         H         0.70630   0.22554   0.14422   0.098018  
         H         H         0.58889   0.24996   0.83582   0.108736  
         H         H         0.54864   0.17342   0.85492   0.113967  
         H         H         0.35588   0.83972   0.97004   0.117729  
         H         H         0.32595   0.76230   0.98866   0.112443  
         H         H         0.42901   0.77921   0.82105   0.104849  
         H         H         0.46015   0.85515   0.81585   0.112698  
         H         H         0.61524   0.28775   0.01136   0.089617  
         H         H         0.31054   0.59497   0.96140   0.106287  
         H         H         0.96074   0.54276   0.91363   0.121981  
         H         H         0.05903   0.47942   0.96158   0.134940  
         H         H         0.96406   0.36868   0.95066   0.109356  
         H         H         0.99223   0.41654   0.81084   0.099922  
         H         H         0.93857   0.40613   0.79637   0.096083  
         H         H         0.98289   0.61296   0.78708   0.097086  
         H         H         0.03345   0.65175   0.87576   0.116749  
         H         H         0.00946   0.60295   0.02445   0.111377  
         H         H         0.91791   0.42372   0.02104   0.081052  
         H         H         0.10175   0.59960   0.85450   0.072514  
         H         H         0.82287   0.47466   0.68658   0.113178  
         H         H         0.75075   0.42223   0.71649   0.095918  
         H         H         0.80921   0.36751   0.26454   0.094589  
         H         H         0.88142   0.41502   0.22345   0.096653  
         H         H         0.16879   0.53020   0.82685   0.121260  
         H         H         0.24449   0.57269   0.82753   0.105422  
         H         H         0.24378   0.66776   0.00417   0.104578  
         H         H         0.16824   0.62646   0.99461   0.111938  
         H         H         0.41779   0.71394   0.96458   0.103401  
         H         H         0.75756   0.32901   0.85236   0.111999  
         H         H         0.72435   0.27454   0.89626   0.102899  
         H         H         0.79066   0.30768   0.21689   0.079586  
         H         H         0.78650   0.24179   0.32770   0.226139  
         H         H         0.78866   0.22448   0.02758   0.040922  
         H         H         0.80163   0.14312   0.47607   0.123795  
         H         H         0.76654   0.15098   0.25407   0.126485  
         H         H         0.77046   0.17480   0.40768   0.113400  
         H         H         0.88944   0.25041   0.41360   0.127053  
         H         H         0.86971   0.20358   0.57521   0.125525  
         H         H         0.84937   0.24521   0.49013   0.116584  
         H         H         0.86097   0.16624   0.35241   0.127597  
         H         H         0.87351   0.21381   0.18306   0.124947  
         H         H         0.82361   0.17085   0.13598   0.113813  
         H         H         0.85926   0.26964   0.92782   0.108062  
         H         H         0.90007   0.28368   0.12957   0.099439  
         H         H         0.88097   0.32302   0.94985   0.131144  
         C         C         0.46487   0.50524   0.59539   -0.008836           
         C         C         0.44838   0.46184   0.59239   0.182347  
         C         C         0.47409   0.44452   0.58779   -0.203167           
         C         C         0.51629   0.46966   0.57874   -0.014995           
         C         C         0.53283   0.51343   0.58076   0.200638  
         C         C         0.50744   0.53052   0.59019   -0.241669           
         O         O         0.57416   0.53671   0.57085   -0.168546           
         C         C         0.58996   0.58154   0.55878   -0.187566           
         O         O         0.40540   0.43693   0.58299   -0.208852           
         C         C         0.39875   0.41288   0.75634   -0.185892           
         C         C         0.54207   0.45214   0.56129   0.088713  
         C         C         0.43743   0.52411   0.59153   0.079584  
         N         N         0.45118   0.56425   0.58568   -0.280890           
         N         N         0.52757   0.41251   0.55661   -0.296495           
         C         C         0.42237   0.58098   0.57066   0.202592  
         C         C         0.55395   0.39695   0.54254   0.201064  
         C         C         0.53376   0.36003   0.47700   -0.160020           
         C         C         0.55759   0.34223   0.46075   -0.128727           
         C         C         0.60287   0.35967   0.51370   0.067614  
         C         C         0.62289   0.39618   0.58236   -0.115470           
         C         C         0.59922   0.41460   0.59564   -0.166896           
         C         C         0.42706   0.62287   0.46362   -0.155354           
         C         C         0.39824   0.64099   0.43289   -0.128371           
         C         C         0.36461   0.61872   0.51241   0.053683  
         C         C         0.36094   0.57741   0.62454   -0.122709           
         C         C         0.38917   0.55871   0.65290   -0.178336           
         C         C         0.62822   0.33995   0.50162   0.070932  
         C         C         0.33516   0.63932   0.48047   0.082931  
         C         C         0.67093   0.36276   0.49892   -0.179621           
         C         C         0.28070   0.68055   0.41329   -0.191574           
         C         C         0.45359   0.94889   0.43878   -0.016066           
         C         C         0.49638   0.97413   0.43166   0.194387  
         C         C         0.51277   0.01743   0.42505   -0.237175           
         C         C         0.48793   0.03661   0.42799   -0.013539           
         C         C         0.44527   0.01132   0.43616   0.187108  
         C         C         0.42878   0.96806   0.44194   -0.243114           
         O         O         0.42225   0.03181   0.43697   -0.177513           
         C         C         0.38117   0.00514   0.46728   -0.182123           
         O         O         0.51879   0.95340   0.42897   -0.171256           
         C         C         0.56066   0.97917   0.40531   -0.182067           
         C         C         0.50673   0.08183   0.42768   0.089388  
         C         C         0.43520   0.90390   0.43979   0.084554  
         N         N         0.39433   0.88241   0.41423   -0.291701           
         N         N         0.54723   0.10289   0.44708   -0.265542           
         C         C         0.37825   0.83924   0.41464   0.198288  
         C         C         0.56566   0.14619   0.44996   0.197658  
         C         C         0.59516   0.15712   0.61077   -0.171902           
         C         C         0.61701   0.19967   0.61812   -0.115201           
         C         C         0.61086   0.23289   0.46573   0.057284  
         C         C         0.58083   0.22178   0.30586   -0.128215           
         C         C         0.55842   0.17902   0.29666   -0.189613           
         C         C         0.33977   0.81253   0.46042   -0.154054           
         C         C         0.32270   0.76902   0.46941   -0.129873           
         C         C         0.34264   0.75053   0.42886   0.056161  
         C         C         0.38038   0.77780   0.37757   -0.125474           
         C         C         0.39786   0.82122   0.36980   -0.176113           
         C         C         0.63394   0.27833   0.47855   0.021641  
         C         C         0.32471   0.70442   0.43688   0.075431  
         C         C         0.61044   0.29728   0.49125   -0.183851           
         C         C         0.29117   0.61608   0.46213   -0.186924           
         C         C         0.01809   0.52806   0.40248   -0.009132           
         C         C         0.99187   0.54569   0.40888   0.186096  
         C         C         0.95168   0.51919   0.43380   -0.235508           
         C         C         0.93609   0.47501   0.44986   -0.007706           
         C         C         0.96209   0.45751   0.44057   0.179236  
         C         C         0.00245   0.48385   0.41828   -0.237860           
         O         O         0.94469   0.41418   0.45402   -0.171551           
         C         C         0.97073   0.39550   0.44922   -0.185014           
         O         O         0.00880   0.58928   0.38979   -0.178054           
         C         C         0.98381   0.60696   0.40809   -0.182297           
         C         C         0.89346   0.44752   0.46862   0.079140  
         C         C         0.06074   0.55503   0.38333   0.081116  
         N         N         0.08629   0.53894   0.39094   -0.287408           
         N         N         0.86585   0.46208   0.45321   -0.291667           
         C         C         0.12872   0.56526   0.39102   0.196708  
         C         C         0.82510   0.43214   0.46654   0.204882  
         C         C         0.79015   0.44610   0.37912   -0.159307           
         C         C         0.74883   0.41790   0.38529   -0.137882           
         C         C         0.74004   0.37428   0.47616   0.061768  
         C         C         0.77531   0.36102   0.56558   -0.125100           
         C         C         0.81680   0.38916   0.56323   -0.151445           
         C         C         0.15185   0.54955   0.35447   -0.155084           
         C         C         0.19495   0.57267   0.36208   -0.124860           
         C         C         0.21710   0.61214   0.41009   0.051864  
         C         C         0.19371   0.62763   0.44645   -0.128250           
         C         C         0.15064   0.60500   0.43716   -0.173642           
         C         C         0.69584   0.34508   0.48574   0.027145  
         C         C         0.26337   0.63628   0.42822   0.077581  
         C         C         0.67724   0.30161   0.47610   0.035080  
         C         C         0.35143   0.68323   0.46960   -0.188952           
         C         C         0.69916   0.28121   0.43703   -0.237806           
         C         C         0.70932   0.24173   0.57935   0.046139  
         N         N         0.68745   0.20292   0.51186   -0.415414           
         C         C         0.71657   0.18040   0.56943   0.150615  
         N         N         0.75878   0.21135   0.64268   -0.124092           
         C         C         0.75640   0.24674   0.65053   0.391055  
         C         C         0.70233   0.13584   0.70190   0.221098  
         C         C         0.70010   0.14132   0.86739   -0.426560           
         C         C         0.73225   0.11153   0.75900   -0.432560           
         C         C         0.65754   0.10975   0.59735   -0.432430           
         C         C         0.79969   0.20559   0.72167   -0.274474           
         O         O         0.78785   0.27608   0.71263   -0.463480           
         H         H         0.46140   0.41113   0.58597   0.128891  
         H         H         0.51878   0.56388   0.58935   0.121966  
         H         H         0.59166   0.58680   0.68111   0.102561  
         H         H         0.56954   0.59710   0.44018   0.113472  
         H         H         0.62236   0.59453   0.54625   0.113026  
         H         H         0.41703   0.39145   0.82623   0.096663  
         H         H         0.36426   0.39390   0.73169   0.111820  
         H         H         0.40849   0.43421   0.84079   0.094220  
         H         H         0.57389   0.47459   0.54749   0.072135  
         H         H         0.40388   0.50294   0.58364   0.070166  
         H         H         0.49884   0.34591   0.43724   0.107975  
         H         H         0.54075   0.31465   0.40332   0.103299  
         H         H         0.65773   0.40923   0.63396   0.104208  
         H         H         0.61595   0.44140   0.65778   0.109705  
         H         H         0.45264   0.63976   0.40006   0.117522  
         H         H         0.40094   0.67245   0.34184   0.103069  
         H         H         0.33651   0.56041   0.69435   0.105998  
         H         H         0.38664   0.52726   0.74396   0.109666  
         H         H         0.68565   0.39604   0.50459   0.098949  
         H         H         0.25931   0.69695   0.37874   0.101932  
         H         H         0.54503   0.03814   0.41583   0.120793  
         H         H         0.39641   0.94730   0.44913   0.121734  
         H         H         0.38432   0.98020   0.59350   0.109852  
         H         H         0.35846   0.98990   0.35577   0.103042  
         H         H         0.36935   0.02650   0.47591   0.114795  
         H         H         0.58278   0.99374   0.51900   0.093723  
         H         H         0.55897   0.00430   0.27966   0.102907  
         H         H         0.57206   0.95727   0.39848   0.119829  
         H         H         0.48533   0.09639   0.41542   0.081279  
         H         H         0.45779   0.88938   0.46480   0.070917  
         H         H         0.60022   0.13169   0.73010   0.112260  
         H         H         0.63959   0.20745   0.74415   0.088822  
         H         H         0.57483   0.24702   0.18694   0.098822  
         H         H         0.53585   0.17090   0.17095   0.106807  
         H         H         0.32480   0.82660   0.49504   0.116181  
         H         H         0.29411   0.74874   0.51368   0.108521  
         H         H         0.39525   0.76502   0.33597   0.106304  
         H         H         0.42584   0.84166   0.32137   0.117323  
         H         H         0.57755   0.27767   0.49452   0.101860  
         H         H         0.27850   0.58191   0.47321   0.110374  
         H         H         0.93061   0.53125   0.43997   0.126662  
         H         H         0.02343   0.47181   0.41118   0.125659  
         H         H         0.97763   0.40824   0.31958   0.114417  
         H         H         0.95148   0.36123   0.46714   0.116245  
         H         H         0.00101   0.40060   0.55936   0.100690  
         H         H         0.00343   0.64097   0.39885   0.116110  
         H         H         0.97744   0.59181   0.53922   0.102840  
         H         H         0.95321   0.60323   0.29989   0.105283  
         H         H         0.88517   0.41335   0.48958   0.064970  
         H         H         0.07005   0.58936   0.36462   0.067700  
         H         H         0.79630   0.47943   0.30548   0.113556  
         H         H         0.72260   0.42968   0.31800   0.095459  
         H         H         0.77126   0.32833   0.64272   0.106824  
         H         H         0.84299   0.37751   0.64442   0.113597  
         H         H         0.13492   0.51915   0.31709   0.122048  
         H         H         0.21149   0.56025   0.32764   0.109238  
         H         H         0.21025   0.65679   0.49311   0.105378  
         H         H         0.13458   0.61701   0.47622   0.110059  
         H         H         0.38583   0.70069   0.49314   0.102991  
         H         H         0.72819   0.30560   0.40102   0.106142  
         H         H         0.67719   0.27021   0.31489   0.101659  
         H         H         0.70029   0.23583   0.69825   0.066993  
         H         H         0.67473   0.20977   0.37550   0.232076  
         H         H         0.71674   0.17466   0.45157   0.041668  
         H         H         0.68879   0.11012   0.95929   0.121043  
         H         H         0.67782   0.15742   0.82794   0.134285  
         H         H         0.73175   0.16038   0.94251   0.106496  
         H         H         0.73794   0.11126   0.64231   0.116089  
         H         H         0.71706   0.07806   0.82586   0.122272  
         H         H         0.76349   0.12462   0.85367   0.113992  
         H         H         0.64479   0.07829   0.68466   0.110524  
         H         H         0.65893   0.10444   0.48150   0.116442  
         H         H         0.63493   0.12600   0.54749   0.134788  
         H         H         0.82493   0.23736   0.70327   0.123459  
         H         H         0.80084   0.18589   0.65654   0.118150  
         H         H         0.80593   0.19072   0.86643   0.102225 

