
##########################################################################
#               Crystallographic Information Format file
#               Produced by PyCifRW module
#
#  This is a CIF file.  CIF has been adopted by the International
#  Union of Crystallography as the standard for data archiving and
#  transmission.
#
#  For information on this file format, follow the CIF links at
#  http://www.iucr.org
##########################################################################

data_image0

_cell_length_a                          44.3081
_cell_length_b                          23.272
_cell_length_c                          21.1889
_cell_angle_alpha                       90.1968
_cell_angle_beta                        89.9432
_cell_angle_gamma                       89.8326
_symmetry_space_group_name_H-M          'P 1'
_space_group_name_Hall                  'P 1'
loop_
  _atom_site_type_symbol
  _atom_site_label
  _atom_site_fract_x
  _atom_site_fract_y
  _atom_site_fract_z
  _atom_site_charge
         C         C         0.08001   0.65499   0.47065   -0.138321           
         C         C         0.10218   0.61254   0.47062   -0.106910           
         C         C         0.18086   0.45629   0.42899   -0.156083           
         C         C         0.20297   0.41367   0.42983   -0.130851           
         H         H         0.89845   0.73196   0.60843   0.117599  
         H         H         0.85861   0.65710   0.60873   0.107714  
         H         H         0.82032   0.48856   0.59047   0.109835  
         H         H         0.78148   0.41341   0.58880   0.107961  
         C         C         0.39733   0.33962   0.14893   -0.136811           
         C         C         0.37422   0.33988   0.19327   -0.107150           
         C         C         0.29626   0.29496   0.36275   -0.162369           
         C         C         0.27454   0.29484   0.41019   -0.131605           
         H         H         0.56243   0.46006   0.19441   0.117954  
         H         H         0.60407   0.46454   0.27306   0.107318  
         H         H         0.70241   0.44317   0.33158   0.112955  
         H         H         0.74237   0.44108   0.41253   0.108749  
         C         C         0.34979   0.38442   0.68552   0.065826  
         H         H         0.35183   0.41679   0.64801   0.067227  
         C         C         0.10200   0.99723   0.57839   -0.141681           
         C         C         0.12457   0.03885   0.57882   -0.135080           
         C         C         0.18394   0.23002   0.54676   -0.177217           
         C         C         0.20511   0.27413   0.54572   -0.129834           
         H         H         0.93774   0.03809   0.43680   0.118550  
         H         H         0.89786   0.11436   0.43593   0.117102  
         H         H         0.81750   0.20124   0.38346   0.120469  
         H         H         0.77808   0.27719   0.38498   0.110250  
         C         C         0.42014   0.42594   0.77380   -0.139908           
         C         C         0.39690   0.42554   0.72947   -0.133862           
         C         C         0.29448   0.40105   0.61385   -0.180575           
         C         C         0.27250   0.39972   0.56686   -0.132846           
         H         H         0.60215   0.30451   0.86455   0.115574  
         H         H         0.64290   0.30121   0.78283   0.118866  
         H         H         0.70349   0.25275   0.64221   0.120038  
         H         H         0.74317   0.25517   0.55947   0.109517  
         C         C         0.34917   0.38310   0.28806   0.066793  
         H         H         0.35008   0.41774   0.32354   0.067752  
         C         C         0.06431   0.79816   0.51956   0.181212  
         C         C         0.09552   0.81504   0.51383   -0.182384           
         C         C         0.06534   0.89306   0.52316   0.182879  
         C         C         0.09618   0.87370   0.51614   -0.179745           
         H         H         0.11423   0.78548   0.50783   0.131998  
         H         H         0.11565   0.90155   0.51289   0.130661  
         C         C         0.57966   0.42667   0.19536   -0.140320           
         C         C         0.60307   0.42918   0.23930   -0.134545           
         C         C         0.70793   0.40292   0.35491   -0.181671           
         C         C         0.73075   0.40147   0.40039   -0.137804           
         H         H         0.39800   0.30677   0.11233   0.116276  
         H         H         0.35655   0.30756   0.19238   0.117720  
         H         H         0.30676   0.25524   0.34669   0.120705  
         H         H         0.26802   0.25424   0.43141   0.111035  
         C         C         0.92155   0.04137   0.47532   -0.139059           
         C         C         0.89943   0.08388   0.47460   -0.105506           
         C         C         0.81208   0.22391   0.42706   -0.159669           
         C         C         0.78990   0.26661   0.42837   -0.139641           
         H         H         0.10046   0.96590   0.61620   0.116823  
         H         H         0.14095   0.03997   0.61707   0.107726  
         H         H         0.17362   0.21721   0.59118   0.111260  
         H         H         0.21151   0.29483   0.58982   0.108224  
         C         C         0.85106   0.57146   0.52551   0.065506  
         C         C         0.56356   0.38574   0.03828   0.179408  
         C         C         0.55454   0.38035   0.10152   -0.071913           
         C         C         0.57852   0.38198   0.15066   0.092139  
         C         C         0.62569   0.38665   0.24029   0.050618  
         N         N         0.66970   0.34913   0.29225   -0.284439           
         C         C         0.69264   0.35235   0.33761   0.200836  
         C         C         0.73898   0.35013   0.43047   0.055792  
         C         C         0.40510   0.40251   0.01917   -0.182779           
         H         H         0.38661   0.41389   0.92346   0.132369  
         C         C         0.02406   0.72453   0.52367   0.181463  
         C         C         0.01411   0.66595   0.53106   -0.177662           
         C         C         0.07781   0.69483   0.52074   0.093015  
         C         C         0.12269   0.60845   0.52121   0.052329  
         N         N         0.14906   0.52589   0.47973   -0.291750           
         C         C         0.17120   0.48298   0.48519   0.199355  
         C         C         0.21636   0.39604   0.48667   0.058384  
         C         C         0.94403   0.74500   0.52327   -0.073124           
         H         H         0.02894   0.62919   0.53614   0.132350  
         H         H         0.83365   0.57713   0.56211   0.064888  
         C         C         0.60208   0.33469   0.82545   -0.133889           
         C         C         0.62472   0.33260   0.78012   -0.108647           
         C         C         0.70957   0.29305   0.61976   -0.158796           
         C         C         0.73176   0.29477   0.57310   -0.139554           
         H         H         0.43798   0.45791   0.77145   0.117808  
         H         H         0.39662   0.45721   0.69175   0.106576  
         H         H         0.30265   0.44206   0.63167   0.110427  
         H         H         0.26426   0.44002   0.54751   0.110672  
         C         C         0.89783   0.69970   0.57123   -0.141132           
         C         C         0.87551   0.65761   0.57136   -0.135116           
         C         C         0.81364   0.46971   0.54558   -0.178485           
         C         C         0.79171   0.42682   0.54458   -0.135830           
         H         H         0.06420   0.65832   0.43160   0.116875  
         H         H         0.10428   0.58197   0.43184   0.118590  
         H         H         0.17065   0.47013   0.38494   0.119880  
         H         H         0.20973   0.39338   0.38572   0.109933  
         C         C         0.85421   0.13118   0.52414   0.066002  
         C         C         0.56359   0.38410   0.93391   0.183997  
         C         C         0.55461   0.37761   0.87070   -0.075670           
         C         C         0.57847   0.37538   0.82161   0.090518  
         C         C         0.62448   0.37136   0.72923   0.051359  
         N         N         0.67136   0.33807   0.68380   -0.288560           
         C         C         0.69396   0.34315   0.63781   0.202103  
         C         C         0.73969   0.34665   0.54386   0.057209  
         C         C         0.40524   0.40422   0.95475   -0.180663           
         H         H         0.38633   0.41045   0.05076   0.133057  
         C         C         0.02647   0.96919   0.53242   0.182448  
         C         C         0.01739   0.02791   0.54399   -0.179813           
         C         C         0.08061   0.99545   0.52956   0.093453  
         C         C         0.12645   0.07965   0.53020   0.050753  
         N         N         0.15297   0.16012   0.48660   -0.283626           
         C         C         0.17471   0.20342   0.49012   0.199073  
         C         C         0.21806   0.29284   0.48881   0.054648  
         C         C         0.94631   0.95507   0.52525   -0.072588           
         H         H         0.03271   0.06304   0.55354   0.132679  
         H         H         0.83947   0.13153   0.56603   0.065851  
         C         C         0.23896   0.34568   0.48766   0.012435  
         N         N         0.04609   0.84633   0.52422   -0.385606           
         N         N         0.54498   0.38017   0.98612   -0.386499           
         C         C         0.52438   0.37376   0.12047   0.181676  
         C         C         0.51478   0.36136   0.18406   -0.181001           
         C         C         0.52435   0.37359   0.85165   0.185063  
         C         C         0.51453   0.36293   0.78771   -0.183955           
         H         H         0.52932   0.35354   0.74827   0.132555  
         H         H         0.52979   0.35271   0.22315   0.132288  
         C         C         0.41946   0.42334   0.19838   -0.141305           
         C         C         0.39609   0.42402   0.24258   -0.133524           
         C         C         0.29205   0.39833   0.35572   -0.183350           
         C         C         0.26988   0.39763   0.40254   -0.134546           
         H         H         0.60029   0.30479   0.11728   0.116637  
         H         H         0.64191   0.30867   0.19708   0.118582  
         H         H         0.68990   0.26132   0.35244   0.120064  
         H         H         0.72909   0.25939   0.43585   0.109382  
         C         C         0.08239   0.03682   0.48122   -0.135903           
         C         C         0.10495   0.07812   0.48134   -0.108707           
         C         C         0.18665   0.22380   0.43289   -0.157967           
         C         C         0.20809   0.26731   0.43250   -0.137357           
         H         H         0.90328   0.97542   0.61326   0.118296  
         H         H         0.86387   0.05182   0.61274   0.108739  
         H         H         0.83410   0.22984   0.58092   0.112548  
         H         H         0.79520   0.30593   0.58232   0.108431  
         C         C         0.14615   0.56443   0.52333   0.065595  
         C         C         0.43550   0.38915   0.03881   0.182247  
         C         C         0.44440   0.38128   0.10169   -0.072641           
         C         C         0.42034   0.38128   0.15068   0.091229  
         C         C         0.37319   0.38236   0.24073   0.050122  
         N         N         0.32860   0.34393   0.28968   -0.284952           
         C         C         0.30595   0.34691   0.33579   0.202684  
         C         C         0.26072   0.34604   0.43075   0.053582  
         C         C         0.59420   0.39611   0.01814   -0.179959           
         H         H         0.61298   0.40201   0.92192   0.132057  
         C         C         0.97419   0.72639   0.52516   0.184129  
         C         C         0.98331   0.66712   0.53212   -0.183553           
         C         C         0.91994   0.70066   0.52359   0.091109  
         C         C         0.87474   0.61497   0.52419   0.052393  
         N         N         0.85033   0.52944   0.48557   -0.289499           
         C         C         0.82782   0.48737   0.48941   0.200788  
         C         C         0.78300   0.40007   0.48797   0.056370  
         C         C         0.05445   0.74091   0.52081   -0.074390           
         H         H         0.96805   0.63135   0.53817   0.133119  
         H         H         0.16123   0.56634   0.56458   0.063805  
         C         C         0.39722   0.34454   0.82619   -0.136543           
         C         C         0.37412   0.34397   0.78206   -0.108210           
         C         C         0.29377   0.29729   0.61803   -0.161456           
         C         C         0.27212   0.29650   0.57048   -0.134627           
         H         H         0.56040   0.44596   0.76754   0.117215  
         H         H         0.60063   0.44161   0.68569   0.108815  
         H         H         0.69178   0.43545   0.62547   0.109780  
         H         H         0.73057   0.43789   0.54210   0.112093  
         C         C         0.09830   0.69068   0.57102   -0.139971           
         C         C         0.12044   0.64807   0.57128   -0.137459           
         C         C         0.18343   0.46327   0.54256   -0.177909           
         C         C         0.20553   0.42060   0.54293   -0.136468           
         H         H         0.93571   0.65906   0.43864   0.116329  
         H         H         0.89619   0.58264   0.44015   0.119275  
         H         H         0.83163   0.47120   0.38991   0.120081  
         H         H         0.79262   0.39485   0.38820   0.111692  
         C         C         0.15041   0.12260   0.53101   0.064006  
         C         C         0.43569   0.39157   0.93470   0.182577  
         C         C         0.44458   0.38563   0.87144   -0.075250           
         C         C         0.42049   0.38564   0.82297   0.091456  
         C         C         0.37359   0.38470   0.73306   0.050030  
         N         N         0.32814   0.34737   0.68633   -0.287313           
         C         C         0.30577   0.34963   0.63969   0.201345  
         C         C         0.26076   0.34753   0.54436   0.053570  
         C         C         0.59420   0.39505   0.95365   -0.182088           
         H         H         0.61319   0.40373   0.04914   0.132804  
         C         C         0.97667   0.97109   0.53064   0.180727  
         C         C         0.98659   0.02909   0.54261   -0.180096           
         C         C         0.92306   0.00141   0.52510   0.093059  
         C         C         0.87817   0.08793   0.52390   0.051284  
         N         N         0.85003   0.16605   0.47770   -0.284707           
         C         C         0.82769   0.20862   0.48226   0.200629  
         C         C         0.78292   0.29630   0.48433   0.053417  
         C         C         0.05660   0.95087   0.52852   -0.074997           
         H         H         0.97171   0.06538   0.55045   0.131985  
         H         H         0.16624   0.12063   0.57098   0.067755  
         C         C         0.76124   0.34844   0.48655   0.011941  
         N         N         0.95470   0.84961   0.52416   -0.384270           
         N         N         0.45411   0.38422   0.98663   -0.385363           
         C         C         0.47451   0.37362   0.12027   0.183205  
         C         C         0.48393   0.36094   0.18383   -0.183720           
         C         C         0.47456   0.37791   0.85194   0.183783  
         C         C         0.48374   0.36590   0.78788   -0.182658           
         H         H         0.46848   0.35962   0.74862   0.131663  
         H         H         0.46871   0.35187   0.22251   0.132432  
         C         C         0.91898   0.65799   0.47620   -0.135348           
         C         C         0.89694   0.61569   0.47655   -0.110591           
         C         C         0.82001   0.45891   0.43300   -0.154524           
         C         C         0.79801   0.41645   0.43238   -0.132823           
         H         H         0.09642   0.72086   0.61009   0.116771  
         H         H         0.13613   0.64494   0.61064   0.109039  
         H         H         0.17522   0.48057   0.58716   0.111476  
         H         H         0.21435   0.40556   0.58781   0.110170  
         C         C         0.60125   0.33948   0.15176   -0.138748           
         C         C         0.62440   0.34153   0.19587   -0.108172           
         C         C         0.70142   0.30051   0.36647   -0.160866           
         C         C         0.72359   0.29978   0.41280   -0.128644           
         H         H         0.43693   0.45604   0.19976   0.118111  
         H         H         0.39540   0.45739   0.27871   0.107542  
         H         H         0.29830   0.43876   0.33370   0.112108  
         H         H         0.25941   0.43786   0.41716   0.109976  
         C         C         0.64816   0.37174   0.68140   0.065564  
         H         H         0.64491   0.40266   0.64275   0.066220  
         C         C         0.90202   0.00584   0.57450   -0.142420           
         C         C         0.87997   0.04864   0.57403   -0.134303           
         C         C         0.82116   0.23895   0.53842   -0.180628           
         C         C         0.79935   0.28209   0.53890   -0.125277           
         H         H         0.06603   0.03555   0.44303   0.116556  
         H         H         0.10674   0.10991   0.44398   0.118693  
         H         H         0.17882   0.20454   0.38905   0.120798  
         H         H         0.21710   0.28218   0.38773   0.111174  
         C         C         0.57820   0.41380   0.77052   -0.138038           
         C         C         0.60084   0.41159   0.72498   -0.137409           
         C         C         0.70239   0.39563   0.60984   -0.180981           
         C         C         0.72466   0.39697   0.56348   -0.132345           
         H         H         0.39792   0.31287   0.86380   0.117244  
         H         H         0.35617   0.31221   0.78397   0.118898  
         H         H         0.30219   0.25750   0.63837   0.120575  
         H         H         0.26380   0.25541   0.55348   0.110088  
         C         C         0.64977   0.38941   0.28742   0.066374  
         H         H         0.64940   0.42680   0.31942   0.067875  
         C         C         0.93544   0.80303   0.52074   0.182319  
         C         C         0.90469   0.82256   0.51367   -0.181449           
         C         C         0.93650   0.89794   0.52104   0.180699  
         C         C         0.90536   0.88120   0.51378   -0.181381           
         H         H         0.88535   0.79469   0.50823   0.130389  
         H         H         0.88663   0.91075   0.50873   0.130610  
         Cu        Cu        0.49953   0.38118   0.98630   0.643762  
         N         N         0.49959   0.38101   0.89066   -0.386949           
         N         N         0.49949   0.37933   0.08161   -0.386421           
         N         N         -0.00058  0.76112   0.52108   -0.386313           
         N         N         0.00129   0.93466   0.52598   -0.384731           
         Cu        Cu        0.00039   0.84793   0.52331   0.642825 

