
##########################################################################
#               Crystallographic Information Format file
#               Produced by PyCifRW module
#
#  This is a CIF file.  CIF has been adopted by the International
#  Union of Crystallography as the standard for data archiving and
#  transmission.
#
#  For information on this file format, follow the CIF links at
#  http://www.iucr.org
##########################################################################

data_image0

_cell_length_a                          44.2568
_cell_length_b                          23.3236
_cell_length_c                          21.4302
_cell_angle_alpha                       90.1959
_cell_angle_beta                        89.791
_cell_angle_gamma                       89.9468
_symmetry_space_group_name_H-M          'P 1'
_space_group_name_Hall                  'P 1'
loop_
  _atom_site_type_symbol
  _atom_site_label
  _atom_site_fract_x
  _atom_site_fract_y
  _atom_site_fract_z
  _atom_site_charge
         C         C         0.07875   0.65890   0.47651   -0.127477           
         C         C         0.10156   0.61789   0.47730   -0.109415           
         C         C         0.18292   0.46864   0.43467   -0.152023           
         C         C         0.20521   0.42659   0.43486   -0.136315           
         H         H         0.89679   0.74283   0.60151   0.120035  
         H         H         0.85686   0.66771   0.60468   0.108484  
         H         H         0.81894   0.49578   0.59153   0.113507  
         H         H         0.77962   0.42126   0.58886   0.108200  
         C         C         0.39366   0.35141   0.14401   -0.124291           
         C         C         0.37100   0.35115   0.18898   -0.110183           
         C         C         0.29516   0.30347   0.36351   -0.162790           
         C         C         0.27409   0.30409   0.41187   -0.131599           
         H         H         0.55767   0.45355   0.20569   0.119326  
         H         H         0.59856   0.45974   0.28486   0.109453  
         H         H         0.70228   0.44954   0.33283   0.112897  
         H         H         0.74215   0.44782   0.41311   0.109017  
         C         C         0.35135   0.38316   0.68625   0.065689  
         H         H         0.35514   0.41233   0.64677   0.068807  
         C         C         0.10371   0.00431   0.56888   -0.128039           
         C         C         0.12594   0.04653   0.56965   -0.136406           
         C         C         0.18306   0.24208   0.54730   -0.180330           
         C         C         0.20495   0.28504   0.54693   -0.128556           
         H         H         0.94212   0.05637   0.44599   0.122909  
         H         H         0.90124   0.13049   0.44229   0.119863  
         H         H         0.81763   0.21117   0.38274   0.120965  
         H         H         0.77740   0.28549   0.38582   0.111713  
         C         C         0.42311   0.41743   0.77167   -0.125719           
         C         C         0.40033   0.41755   0.72703   -0.134871           
         C         C         0.29634   0.40615   0.61600   -0.181306           
         C         C         0.27453   0.40663   0.56923   -0.133393           
         H         H         0.60771   0.31273   0.87380   0.121880  
         H         H         0.64764   0.30946   0.79089   0.120890  
         H         H         0.70505   0.25679   0.64265   0.121358  
         H         H         0.74356   0.26105   0.55824   0.109729  
         C         C         0.34942   0.38835   0.28955   0.064684  
         H         H         0.35223   0.42011   0.32720   0.068748  
         C         C         0.06370   0.80535   0.51903   0.034358  
         C         C         0.09441   0.82447   0.50400   -0.175354           
         C         C         0.06487   0.90436   0.52089   0.034446  
         C         C         0.09508   0.88312   0.50511   -0.175022           
         H         H         0.11295   0.79614   0.49183   0.121586  
         H         H         0.11422   0.91016   0.49385   0.119217  
         C         C         0.57733   0.42570   0.20229   -0.126457           
         C         C         0.60027   0.42905   0.24656   -0.133746           
         C         C         0.70763   0.40963   0.35654   -0.182331           
         C         C         0.73043   0.40830   0.40155   -0.136782           
         H         H         0.39252   0.32290   0.10382   0.122196  
         H         H         0.35170   0.32251   0.18516   0.120578  
         H         H         0.30431   0.26333   0.34567   0.121993  
         H         H         0.26693   0.26368   0.43223   0.111522  
         C         C         0.92341   0.05514   0.47904   -0.125711           
         C         C         0.90080   0.09644   0.47690   -0.109328           
         C         C         0.81213   0.23325   0.42612   -0.159768           
         C         C         0.78958   0.27504   0.42830   -0.141387           
         H         H         0.10392   0.96988   0.60300   0.120171  
         H         H         0.14373   0.04525   0.60458   0.110886  
         H         H         0.17290   0.22849   0.59115   0.113309  
         H         H         0.21193   0.30408   0.59099   0.108881  
         C         C         0.85029   0.57854   0.52670   0.065727  
         C         C         0.56601   0.38941   0.03962   0.148498  
         C         C         0.55605   0.38520   0.10290   0.031932  
         C         C         0.57965   0.38735   0.15163   0.072760  
         C         C         0.62564   0.39275   0.24264   0.058451  
         N         N         0.66994   0.35645   0.29363   -0.277196           
         C         C         0.69229   0.35916   0.33970   0.202609  
         C         C         0.73842   0.35723   0.43168   0.052706  
         C         C         0.40426   0.41519   0.01936   -0.202324           
         H         H         0.38700   0.42932   0.92422   0.125366  
         C         C         0.02341   0.72894   0.52358   0.148704  
         C         C         0.01390   0.67090   0.53819   -0.202665           
         C         C         0.07776   0.70282   0.52190   0.076400  
         C         C         0.12357   0.61863   0.52469   0.055382  
         N         N         0.15035   0.53610   0.48576   -0.285528           
         C         C         0.17302   0.49440   0.49058   0.197660  
         C         C         0.21824   0.40768   0.49087   0.056325  
         C         C         0.94371   0.75050   0.52154   0.030363  
         H         H         0.02869   0.63519   0.54855   0.128951  
         H         H         0.83280   0.58479   0.56277   0.065220  
         C         C         0.60595   0.33965   0.83264   -0.124821           
         C         C         0.62819   0.33775   0.78677   -0.109897           
         C         C         0.71037   0.29728   0.62015   -0.158442           
         C         C         0.73197   0.30003   0.57272   -0.139055           
         H         H         0.44292   0.44454   0.76616   0.119686  
         H         H         0.40229   0.44462   0.68593   0.108484  
         H         H         0.30532   0.44634   0.63392   0.111677  
         H         H         0.26724   0.44746   0.55008   0.111341  
         C         C         0.89653   0.70857   0.56700   -0.128649           
         C         C         0.87421   0.66658   0.56851   -0.135242           
         C         C         0.81251   0.47683   0.54704   -0.178790           
         C         C         0.79038   0.43423   0.54547   -0.136099           
         H         H         0.06168   0.65841   0.44012   0.122114  
         H         H         0.10299   0.58464   0.44166   0.119488  
         H         H         0.17253   0.48260   0.39142   0.120122  
         H         H         0.21228   0.40747   0.39083   0.113405  
         C         C         0.85276   0.13809   0.51978   0.065597  
         C         C         0.56638   0.38536   0.93799   0.150390  
         C         C         0.55674   0.37724   0.87508   0.029593  
         C         C         0.58039   0.37542   0.82624   0.075168  
         C         C         0.62588   0.37277   0.73356   0.059045  
         N         N         0.67276   0.34116   0.68641   -0.283451           
         C         C         0.69451   0.34665   0.63904   0.199648  
         C         C         0.73912   0.35218   0.54372   0.055931  
         C         C         0.40454   0.41447   0.95540   -0.201092           
         H         H         0.38642   0.43040   0.05001   0.126416  
         C         C         0.02562   0.98220   0.52901   0.151343  
         C         C         0.01677   0.03987   0.54727   -0.203733           
         C         C         0.08022   0.00646   0.52487   0.074959  
         C         C         0.12577   0.09113   0.52563   0.055411  
         N         N         0.15087   0.17508   0.48653   -0.280101           
         C         C         0.17304   0.21762   0.49082   0.201032  
         C         C         0.21801   0.30440   0.49094   0.051693  
         C         C         0.94568   0.96514   0.52371   0.031819  
         H         H         0.03193   0.07426   0.56038   0.128509  
         H         H         0.83667   0.13650   0.55905   0.067988  
         C         C         0.23994   0.35588   0.49083   0.015631  
         C         C         0.04612   0.85545   0.52986   -0.088103           
         H         H         0.02293   0.85654   0.54545   0.122018  
         N         N         0.54872   0.37466   0.98919   -0.336327           
         C         C         0.52550   0.37943   0.12113   0.035326  
         C         C         0.51448   0.36184   0.18261   -0.171471           
         C         C         0.52632   0.37198   0.85677   0.037386  
         C         C         0.51562   0.35221   0.79587   -0.174877           
         H         H         0.53009   0.33640   0.75870   0.119766  
         H         H         0.52886   0.34842   0.22066   0.119245  
         C         C         0.42074   0.42438   0.20210   -0.127137           
         C         C         0.39761   0.42525   0.24635   -0.134530           
         C         C         0.29364   0.40700   0.36028   -0.183414           
         C         C         0.27200   0.40700   0.40777   -0.128652           
         H         H         0.60715   0.32189   0.10837   0.121319  
         H         H         0.64750   0.32594   0.18987   0.117951  
         H         H         0.68902   0.26832   0.35566   0.121624  
         H         H         0.72800   0.26706   0.43832   0.108107  
         C         C         0.08006   0.05127   0.48073   -0.122935           
         C         C         0.10267   0.09253   0.48057   -0.109452           
         C         C         0.18494   0.23894   0.43458   -0.158437           
         C         C         0.20730   0.28083   0.43482   -0.134612           
         H         H         0.89698   0.97424   0.59986   0.120048  
         H         H         0.85734   0.05008   0.59860   0.109792  
         H         H         0.83460   0.23821   0.57793   0.113613  
         H         H         0.79546   0.31395   0.58059   0.113150  
         C         C         0.14767   0.57594   0.52745   0.065509  
         C         C         0.43351   0.39335   0.03865   0.149537  
         C         C         0.44302   0.38703   0.10182   0.028383  
         C         C         0.41903   0.38762   0.15007   0.075972  
         C         C         0.37262   0.38827   0.24085   0.058249  
         N         N         0.32746   0.35190   0.28998   -0.279205           
         C         C         0.30575   0.35510   0.33769   0.200556  
         C         C         0.26167   0.35570   0.43435   0.052636  
         C         C         0.59553   0.40993   0.01996   -0.202056           
         H         H         0.61361   0.42035   0.92447   0.125764  
         C         C         0.97417   0.73025   0.52391   0.150185  
         C         C         0.98295   0.67172   0.53849   -0.202201           
         C         C         0.91956   0.70660   0.52166   0.077424  
         C         C         0.87400   0.62201   0.52410   0.057787  
         N         N         0.84976   0.53599   0.48805   -0.284394           
         C         C         0.82728   0.49394   0.49185   0.199367  
         C         C         0.78225   0.40712   0.48937   0.055090  
         C         C         0.05403   0.74767   0.52119   0.031830  
         H         H         0.96780   0.63666   0.54924   0.128263  
         H         H         0.16353   0.58047   0.56667   0.066645  
         C         C         0.39454   0.34827   0.83235   -0.121624           
         C         C         0.37217   0.34744   0.78720   -0.112781           
         C         C         0.29328   0.30271   0.62001   -0.161346           
         C         C         0.27200   0.30371   0.57241   -0.134851           
         H         H         0.55838   0.43767   0.76746   0.119020  
         H         H         0.59874   0.43610   0.68635   0.108529  
         H         H         0.69083   0.43849   0.62631   0.110606  
         H         H         0.72857   0.44252   0.54159   0.108222  
         C         C         0.10006   0.70408   0.56843   -0.128515           
         C         C         0.12242   0.66215   0.57025   -0.133404           
         C         C         0.18546   0.47463   0.54698   -0.176004           
         C         C         0.20752   0.43192   0.54680   -0.133624           
         H         H         0.93679   0.66095   0.44124   0.120061  
         H         H         0.89610   0.58628   0.44341   0.118693  
         H         H         0.83228   0.47702   0.39391   0.121002  
         H         H         0.79309   0.40089   0.39129   0.111393  
         C         C         0.14946   0.13469   0.52749   0.065467  
         C         C         0.43390   0.39203   0.93701   0.148329  
         C         C         0.44382   0.38374   0.87419   0.028668  
         C         C         0.42032   0.38332   0.82541   0.074363  
         C         C         0.37464   0.38266   0.73421   0.059266  
         N         N         0.32795   0.35021   0.68893   -0.280002           
         C         C         0.30621   0.35397   0.64182   0.199899  
         C         C         0.26179   0.35551   0.54670   0.053871  
         C         C         0.59578   0.40721   0.95606   -0.203834           
         H         H         0.61318   0.42613   0.05009   0.126078  
         C         C         0.97636   0.98340   0.52830   0.148208  
         C         C         0.98580   0.04063   0.54678   -0.200330           
         C         C         0.92216   0.01031   0.52306   0.076291  
         C         C         0.87672   0.09500   0.52004   0.057697  
         N         N         0.85018   0.17537   0.47574   -0.279799           
         C         C         0.82785   0.21776   0.48039   0.201399  
         C         C         0.78270   0.30403   0.48407   0.052696  
         C         C         0.05614   0.96238   0.52496   0.031819  
         H         H         0.97100   0.07582   0.55943   0.125933  
         H         H         0.16620   0.13055   0.56513   0.068105  
         C         C         0.76065   0.35531   0.48708   0.013427  
         C         C         0.95365   0.85749   0.52921   -0.090578           
         H         H         0.97690   0.85654   0.54419   0.122520  
         N         N         0.45106   0.37946   0.98814   -0.337253           
         C         C         0.47332   0.38028   0.12043   0.037842  
         C         C         0.48355   0.36228   0.18218   -0.174948           
         C         C         0.47421   0.37542   0.85622   0.038438  
         C         C         0.48473   0.35430   0.79557   -0.175412           
         H         H         0.47006   0.34054   0.75810   0.119673  
         H         H         0.46861   0.34925   0.21972   0.119798  
         C         C         0.91930   0.66195   0.47705   -0.125772           
         C         C         0.89675   0.62059   0.47790   -0.108302           
         C         C         0.82005   0.46513   0.43601   -0.153572           
         C         C         0.79794   0.42293   0.43491   -0.129844           
         H         H         0.09922   0.73781   0.60352   0.119843  
         H         H         0.13932   0.66285   0.60704   0.108146  
         H         H         0.17717   0.49145   0.59122   0.110951  
         H         H         0.21629   0.41647   0.59101   0.109315  
         C         C         0.60543   0.35181   0.14725   -0.122057           
         C         C         0.62785   0.35395   0.19231   -0.110698           
         C         C         0.70067   0.30752   0.36890   -0.164849           
         C         C         0.72272   0.30709   0.41486   -0.123733           
         H         H         0.44005   0.45292   0.20645   0.119749  
         H         H         0.39882   0.45467   0.28582   0.108662  
         H         H         0.30068   0.44724   0.33928   0.113148  
         H         H         0.26282   0.44765   0.42406   0.106671  
         C         C         0.64898   0.37330   0.68481   0.064963  
         H         H         0.64469   0.40266   0.64571   0.066729  
         C         C         0.89792   0.00860   0.56569   -0.126295           
         C         C         0.87576   0.05099   0.56478   -0.134793           
         C         C         0.82149   0.24754   0.53631   -0.180982           
         C         C         0.79948   0.29017   0.53755   -0.127814           
         H         H         0.06223   0.05247   0.44592   0.119912  
         H         H         0.10310   0.12664   0.44605   0.120199  
         H         H         0.17644   0.22130   0.39102   0.121017  
         H         H         0.21647   0.29564   0.39060   0.111135  
         C         C         0.57789   0.40968   0.77253   -0.123208           
         C         C         0.60049   0.40871   0.72723   -0.136065           
         C         C         0.70181   0.39927   0.61048   -0.179867           
         C         C         0.72350   0.40158   0.56341   -0.125167           
         H         H         0.39285   0.32118   0.87340   0.121874  
         H         H         0.35248   0.31980   0.79149   0.121200  
         H         H         0.30068   0.26239   0.64025   0.121574  
         H         H         0.26300   0.26338   0.55516   0.110281  
         C         C         0.64885   0.39459   0.29113   0.065826  
         H         H         0.64681   0.42898   0.32620   0.070324  
         C         C         0.93499   0.80861   0.51936   0.037141  
         C         C         0.90471   0.82988   0.50472   -0.179337           
         C         C         0.93596   0.90760   0.51985   0.035009  
         C         C         0.90532   0.88851   0.50465   -0.172855           
         H         H         0.88554   0.80285   0.49377   0.121996  
         H         H         0.88674   0.91682   0.49329   0.118801  
         C         C         0.50032   0.38599   0.89299   -0.094291           
         H         H         0.50050   0.40546   0.93875   0.123906  
         C         C         0.49965   0.39034   0.08366   -0.092669           
         H         H         0.49992   0.40719   0.03679   0.122733  
         N         N         0.99900   0.76393   0.51431   -0.333735           
         N         N         0.00085   0.94885   0.51736   -0.338105 

