
##########################################################################
#               Crystallographic Information Format file
#               Produced by PyCifRW module
#
#  This is a CIF file.  CIF has been adopted by the International
#  Union of Crystallography as the standard for data archiving and
#  transmission.
#
#  For information on this file format, follow the CIF links at
#  http://www.iucr.org
##########################################################################

data_image0

_cell_length_a                          44.3319
_cell_length_b                          23.2738
_cell_length_c                          21.1911
_cell_angle_alpha                       89.2834
_cell_angle_beta                        90.096
_cell_angle_gamma                       90.2398
_symmetry_space_group_name_H-M          'P 1'
_space_group_name_Hall                  'P 1'
loop_
  _atom_site_type_symbol
  _atom_site_label
  _atom_site_fract_x
  _atom_site_fract_y
  _atom_site_fract_z
  _atom_site_charge
         C         C         0.41962   0.57381   0.69712   -0.144753           
         C         C         0.39635   0.57366   0.74140   -0.133173           
         C         C         0.29307   0.60323   0.85540   -0.178561           
         C         C         0.27018   0.60462   0.90038   -0.135514           
         C         C         0.07864   0.65334   0.48222   -0.137460           
         C         C         0.10054   0.61084   0.48273   -0.107862           
         C         C         0.18313   0.46607   0.43404   -0.158162           
         C         C         0.20537   0.42397   0.43348   -0.136185           
         H         H         0.60340   0.68812   0.61193   0.116447  
         H         H         0.64384   0.68744   0.69442   0.116681  
         H         H         0.69216   0.74250   0.84909   0.120719  
         H         H         0.73173   0.74457   0.93200   0.112962  
         H         H         0.90076   0.72344   0.61368   0.119945  
         H         H         0.86121   0.64759   0.61505   0.109198  
         H         H         0.82166   0.48174   0.59134   0.113149  
         H         H         0.78264   0.40636   0.59004   0.109912  
         C         C         0.39693   0.34191   0.15024   -0.135949           
         C         C         0.37425   0.34124   0.19545   -0.106578           
         C         C         0.29411   0.29690   0.36369   -0.161344           
         C         C         0.27190   0.29723   0.41003   -0.134026           
         C         C         0.08257   0.96907   0.97448   -0.140570           
         C         C         0.10447   0.92650   0.97384   -0.106753           
         C         C         0.18558   0.77796   0.92714   -0.157880           
         C         C         0.20770   0.73555   0.92698   -0.139363           
         H         H         0.56222   0.45853   0.20072   0.110691  
         H         H         0.60373   0.45978   0.28002   0.104499  
         H         H         0.70114   0.43880   0.33284   0.111792  
         H         H         0.74076   0.43789   0.41501   0.107181  
         H         H         0.90230   0.03348   0.11052   0.119276  
         H         H         0.86262   0.95749   0.11366   0.109899  
         H         H         0.82732   0.78295   0.08891   0.112830  
         H         H         0.78997   0.70451   0.08814   0.107306  
         C         C         0.35154   0.37997   0.68251   0.065659  
         C         C         0.14739   0.43673   0.03251   0.065844  
         C         C         0.43652   0.61276   0.53890   0.182366  
         C         C         0.44569   0.61724   0.60209   -0.074805           
         C         C         0.42162   0.61750   0.65096   0.090132  
         C         C         0.37455   0.61742   0.74102   0.052892  
         N         N         0.33054   0.65701   0.79040   -0.286413           
         C         C         0.30722   0.65439   0.83489   0.201912  
         C         C         0.26059   0.65648   0.92666   0.057761  
         C         C         0.59481   0.59680   0.51820   -0.182051           
         H         H         0.61321   0.58891   0.42217   0.131477  
         C         C         0.97573   0.27801   0.01851   0.182453  
         C         C         0.98533   0.33709   0.02349   -0.179748           
         C         C         0.92191   0.30584   0.01698   0.093665  
         C         C         0.87712   0.39180   0.01873   0.049222  
         N         N         0.85120   0.47492   0.97738   -0.290080           
         C         C         0.82891   0.51698   0.98295   0.199778  
         C         C         0.78386   0.60309   0.98675   0.055489  
         C         C         0.05559   0.26026   0.02599   -0.071228           
         H         H         0.97033   0.37351   0.02594   0.132021  
         H         H         0.35409   0.41167   0.64385   0.071858  
         H         H         0.16154   0.43636   0.07526   0.065572  
         C         C         0.39753   0.66490   0.32477   -0.133890           
         C         C         0.37506   0.66634   0.27895   -0.110275           
         C         C         0.29289   0.70933   0.11438   -0.157435           
         C         C         0.27072   0.70913   0.06772   -0.138197           
         C         C         0.10093   0.99697   0.57692   -0.140998           
         C         C         0.12313   0.03963   0.57767   -0.134168           
         C         C         0.18286   0.23135   0.54756   -0.181105           
         C         C         0.20449   0.27494   0.54684   -0.128741           
         H         H         0.55975   0.54980   0.26767   0.110672  
         H         H         0.60062   0.55053   0.18733   0.106219  
         H         H         0.69599   0.55928   0.12994   0.110952  
         H         H         0.73558   0.56051   0.04860   0.108024  
         H         H         0.93577   0.03804   0.43744   0.116772  
         H         H         0.89532   0.11281   0.43876   0.115720  
         H         H         0.82131   0.20766   0.38683   0.121390  
         H         H         0.78194   0.28315   0.38685   0.109760  
         C         C         0.42237   0.41826   0.77110   -0.143534           
         C         C         0.39954   0.41830   0.72575   -0.136170           
         C         C         0.29516   0.40013   0.61426   -0.180952           
         C         C         0.27245   0.39993   0.56873   -0.129036           
         C         C         0.09766   0.31245   0.08123   -0.141914           
         C         C         0.11980   0.35516   0.08232   -0.133443           
         C         C         0.18635   0.53744   0.04622   -0.174753           
         C         C         0.20804   0.58090   0.04381   -0.137625           
         H         H         0.60272   0.30593   0.86483   0.116879  
         H         H         0.64243   0.30514   0.78145   0.115852  
         H         H         0.69925   0.25534   0.64366   0.119087  
         H         H         0.73883   0.25351   0.56087   0.110316  
         H         H         0.93519   0.34402   0.92784   0.116293  
         H         H         0.89561   0.42006   0.92979   0.117556  
         H         H         0.82711   0.52835   0.88224   0.119511  
         H         H         0.78787   0.60412   0.88537   0.110640  
         C         C         0.35060   0.38253   0.29242   0.067129  
         C         C         0.14698   0.87397   0.02683   0.066826  
         C         C         0.43622   0.61509   0.43464   0.182690  
         C         C         0.44503   0.62257   0.37143   -0.071328           
         C         C         0.42117   0.62454   0.32213   0.088335  
         C         C         0.37552   0.62747   0.22850   0.053228  
         N         N         0.32958   0.66193   0.18016   -0.288790           
         C         C         0.30744   0.65826   0.13297   0.199366  
         C         C         0.26145   0.65779   0.03944   0.056240  
         C         C         0.59459   0.59724   0.45372   -0.184547           
         H         H         0.61356   0.58803   0.54963   0.131140  
         C         C         0.97535   0.03309   0.02432   0.182564  
         C         C         0.98470   0.97399   0.03155   -0.179749           
         C         C         0.92137   0.00519   0.02288   0.093681  
         C         C         0.87631   0.91908   0.02599   0.050196  
         N         N         0.84857   0.83949   0.98322   -0.289112           
         C         C         0.82649   0.79648   0.98751   0.201400  
         C         C         0.78285   0.70667   0.98740   0.055350  
         C         C         0.05551   0.05033   0.02685   -0.070177           
         H         H         0.96957   0.93761   0.03667   0.132100  
         H         H         0.35321   0.41546   0.32890   0.070167  
         H         H         0.16159   0.87261   0.06892   0.066396  
         C         C         0.76171   0.65385   0.98802   0.013783  
         N         N         0.95473   0.15547   0.01939   -0.385367           
         N         N         0.45499   0.61866   0.48667   -0.386134           
         C         C         0.47592   0.62203   0.62119   0.183442  
         C         C         0.48560   0.63137   0.68534   -0.179024           
         C         C         0.47526   0.62786   0.35245   0.182508  
         C         C         0.48479   0.64078   0.28876   -0.181078           
         H         H         0.46973   0.65057   0.24988   0.132539  
         H         H         0.47063   0.63784   0.72491   0.133636  
         C         C         0.06342   0.79662   0.52641   0.182339  
         C         C         0.09461   0.81375   0.51987   -0.182678           
         C         C         0.06449   0.89157   0.52440   0.181669  
         C         C         0.09525   0.87243   0.51839   -0.180752           
         H         H         0.11339   0.78449   0.51560   0.130753  
         H         H         0.11459   0.90065   0.51312   0.130596  
         C         C         0.57943   0.42530   0.20072   -0.143660           
         C         C         0.60273   0.42594   0.24504   -0.132432           
         C         C         0.70740   0.39854   0.35589   -0.181532           
         C         C         0.72996   0.39775   0.40185   -0.133165           
         C         C         0.91959   0.34644   0.96731   -0.137612           
         C         C         0.89759   0.38877   0.96811   -0.106849           
         C         C         0.81795   0.54254   0.92699   -0.156671           
         C         C         0.79588   0.58470   0.92914   -0.135471           
         H         H         0.39743   0.30926   0.11394   0.117080  
         H         H         0.35669   0.30847   0.19513   0.116580  
         H         H         0.30266   0.25659   0.34561   0.120997  
         H         H         0.26327   0.25660   0.42836   0.111202  
         H         H         0.09414   0.28449   0.12212   0.119060  
         H         H         0.13382   0.36026   0.12417   0.106755  
         H         H         0.17939   0.52004   0.09183   0.112777  
         H         H         0.21786   0.59643   0.08751   0.110546  
         C         C         0.60341   0.65548   0.64911   -0.135519           
         C         C         0.62598   0.65521   0.69467   -0.107377           
         C         C         0.70267   0.70292   0.86551   -0.161690           
         C         C         0.72504   0.70376   0.91167   -0.133547           
         C         C         0.91991   0.03981   0.47647   -0.138150           
         C         C         0.89748   0.08135   0.47691   -0.106268           
         C         C         0.81374   0.22605   0.43095   -0.159378           
         C         C         0.79169   0.26851   0.43135   -0.138918           
         H         H         0.43625   0.53952   0.69730   0.110596  
         H         H         0.39488   0.53911   0.77643   0.104209  
         H         H         0.29967   0.56237   0.83531   0.111384  
         H         H         0.25957   0.56458   0.91542   0.106951  
         H         H         0.09911   0.96615   0.61578   0.118658  
         H         H         0.13879   0.04193   0.61724   0.109695  
         H         H         0.17364   0.21638   0.59240   0.114009  
         H         H         0.21206   0.29265   0.59140   0.107087  
         C         C         0.64936   0.61910   0.18304   0.065292  
         C         C         0.85100   0.56741   0.52739   0.068007  
         C         C         0.56379   0.38724   0.04210   0.183587  
         C         C         0.55433   0.38267   0.10517   -0.075179           
         C         C         0.57808   0.38239   0.15472   0.091197  
         C         C         0.62513   0.38334   0.24479   0.052262  
         N         N         0.66976   0.34460   0.29322   -0.286621           
         C         C         0.69298   0.34731   0.33798   0.201471  
         C         C         0.73893   0.34622   0.43123   0.054310  
         C         C         0.40506   0.39922   0.01776   -0.182255           
         H         H         0.38657   0.40500   0.92146   0.130368  
         C         C         0.02308   0.72276   0.53074   0.181709  
         C         C         0.01279   0.66393   0.53574   -0.179494           
         C         C         0.07675   0.69330   0.53150   0.093306  
         C         C         0.12155   0.60707   0.53256   0.050331  
         N         N         0.14875   0.52791   0.48805   -0.290255           
         C         C         0.17157   0.48647   0.49134   0.200845  
         C         C         0.21671   0.40026   0.48990   0.054243  
         C         C         0.94333   0.74329   0.52377   -0.073953           
         H         H         0.02733   0.62684   0.54024   0.132172  
         H         H         0.64708   0.58659   0.14601   0.071661  
         H         H         0.83518   0.56893   0.56729   0.065466  
         C         C         0.60259   0.33809   0.82711   -0.136162           
         C         C         0.62476   0.33747   0.78088   -0.106086           
         C         C         0.70649   0.29480   0.62012   -0.156140           
         C         C         0.72876   0.29421   0.57378   -0.138558           
         C         C         0.90064   0.00223   0.07289   -0.141453           
         C         C         0.87846   0.95962   0.07448   -0.136197           
         C         C         0.81726   0.76986   0.04443   -0.178747           
         C         C         0.79613   0.72545   0.04384   -0.128463           
         H         H         0.44080   0.44920   0.76808   0.113984  
         H         H         0.40014   0.44940   0.68693   0.107380  
         H         H         0.30403   0.44065   0.63156   0.111508  
         H         H         0.26405   0.44058   0.55020   0.107152  
         H         H         0.06792   0.97560   0.93379   0.119586  
         H         H         0.10733   0.89897   0.93317   0.117237  
         H         H         0.17830   0.79846   0.88332   0.119047  
         H         H         0.21764   0.72297   0.88237   0.109315  
         C         C         0.57830   0.58042   0.27102   -0.140862           
         C         C         0.60126   0.58081   0.22612   -0.135565           
         C         C         0.70510   0.60016   0.11313   -0.180402           
         C         C         0.72770   0.60096   0.06752   -0.129857           
         C         C         0.89868   0.69413   0.57434   -0.141115           
         C         C         0.87645   0.65156   0.57495   -0.133929           
         C         C         0.81423   0.46452   0.54639   -0.177972           
         C         C         0.79231   0.42138   0.54562   -0.134991           
         H         H         0.39735   0.69555   0.36311   0.116247  
         H         H         0.35688   0.69755   0.28056   0.120111  
         H         H         0.29983   0.74914   0.13660   0.119756  
         H         H         0.26031   0.74949   0.05349   0.111136  
         H         H         0.06278   0.65668   0.44312   0.115953  
         H         H         0.10222   0.58035   0.44444   0.117628  
         H         H         0.17437   0.48424   0.39020   0.119236  
         H         H         0.21388   0.40890   0.38855   0.109868  
         C         C         0.64931   0.61313   0.79229   0.067296  
         C         C         0.85257   0.12603   0.52813   0.065005  
         C         C         0.56434   0.38621   0.93784   0.181522  
         C         C         0.55554   0.37983   0.87465   -0.071245           
         C         C         0.57934   0.37931   0.82536   0.088008  
         C         C         0.62466   0.37853   0.73143   0.052332  
         N         N         0.66992   0.34310   0.68343   -0.287767           
         C         C         0.69236   0.34631   0.63701   0.199668  
         C         C         0.73846   0.34522   0.54405   0.055811  
         C         C         0.40535   0.39832   0.95334   -0.182013           
         H         H         0.38609   0.40652   0.04870   0.130857  
         C         C         0.02594   0.96809   0.52871   0.181463  
         C         C         0.01709   0.02734   0.53544   -0.179444           
         C         C         0.08019   0.99400   0.52680   0.091166  
         C         C         0.12522   0.08042   0.52827   0.049389  
         N         N         0.15056   0.16414   0.48641   -0.289334           
         C         C         0.17217   0.20800   0.49066   0.201422  
         C         C         0.21646   0.29679   0.49003   0.054880  
         C         C         0.94574   0.95325   0.52453   -0.071625           
         H         H         0.03255   0.06314   0.54041   0.132916  
         H         H         0.64782   0.57843   0.82801   0.072296  
         H         H         0.83747   0.12409   0.56930   0.067711  
         C         C         0.23829   0.34856   0.48975   0.013213  
         N         N         0.04522   0.84474   0.52808   -0.385107           
         N         N         0.54542   0.38259   0.98960   -0.385525           
         C         C         0.52404   0.37807   0.12357   0.183160  
         C         C         0.51414   0.36829   0.18767   -0.180938           
         C         C         0.52542   0.37349   0.85532   0.183235  
         C         C         0.51629   0.36043   0.79173   -0.180970           
         H         H         0.53164   0.35135   0.75354   0.133292  
         H         H         0.52896   0.36079   0.22758   0.133950  
         C         C         0.93613   0.20294   0.01568   0.183618  
         C         C         0.90508   0.18493   0.01032   -0.182801           
         C         C         0.93586   0.10805   0.01761   0.182742  
         C         C         0.90488   0.12627   0.01137   -0.181901           
         H         H         0.88609   0.21373   0.00562   0.130857  
         H         H         0.88562   0.09782   0.00756   0.130528  
         C         C         0.41926   0.42566   0.19834   -0.142668           
         C         C         0.39656   0.42496   0.24385   -0.133954           
         C         C         0.29509   0.40069   0.36365   -0.179816           
         C         C         0.27256   0.40045   0.40948   -0.131773           
         C         C         0.08367   0.34265   0.97541   -0.139338           
         C         C         0.10564   0.38537   0.97648   -0.107536           
         C         C         0.18160   0.54291   0.93270   -0.156285           
         C         C         0.20321   0.58642   0.93075   -0.132269           
         H         H         0.59899   0.30535   0.12059   0.119023  
         H         H         0.64047   0.30614   0.20091   0.116790  
         H         H         0.69179   0.25560   0.35117   0.120451  
         H         H         0.73101   0.25471   0.43510   0.112865  
         H         H         0.90384   0.27896   0.10707   0.118711  
         H         H         0.86434   0.35431   0.10872   0.107148  
         H         H         0.82743   0.52039   0.08487   0.112797  
         H         H         0.78784   0.59427   0.08787   0.110378  
         C         C         0.39980   0.66146   0.65090   -0.137320           
         C         C         0.37668   0.66155   0.69510   -0.106720           
         C         C         0.29681   0.70674   0.85917   -0.159131           
         C         C         0.27447   0.70747   0.90516   -0.132905           
         C         C         0.08265   0.03436   0.47685   -0.137284           
         C         C         0.10474   0.07687   0.47753   -0.108336           
         C         C         0.18303   0.23173   0.43366   -0.159199           
         C         C         0.20483   0.27492   0.43351   -0.136369           
         H         H         0.56241   0.54000   0.69988   0.113765  
         H         H         0.60303   0.53856   0.78118   0.104959  
         H         H         0.69961   0.55876   0.84085   0.111714  
         H         H         0.73957   0.56088   0.92192   0.109997  
         H         H         0.90327   0.96963   0.61400   0.118899  
         H         H         0.86324   0.04425   0.61561   0.110529  
         H         H         0.82875   0.21889   0.58847   0.113848  
         H         H         0.79007   0.29460   0.58860   0.111989  
         C         C         0.35235   0.62754   0.17942   0.066859  
         C         C         0.14566   0.56451   0.53289   0.068255  
         C         C         0.43554   0.38892   0.03868   0.181719  
         C         C         0.44412   0.38409   0.10230   -0.070287           
         C         C         0.41992   0.38402   0.15086   0.088409  
         C         C         0.37377   0.38268   0.24333   0.052458  
         N         N         0.32881   0.34551   0.29372   -0.286098           
         C         C         0.30650   0.34871   0.34038   0.200361  
         C         C         0.26038   0.34887   0.43350   0.054640  
         C         C         0.59468   0.39618   0.02277   -0.182578           
         H         H         0.61414   0.40158   0.92724   0.131070  
         C         C         0.97329   0.72459   0.52793   0.182327  
         C         C         0.98201   0.66511   0.53381   -0.179061           
         C         C         0.91894   0.69903   0.52364   0.092243  
         C         C         0.87384   0.61276   0.52484   0.049385  
         N         N         0.84928   0.52816   0.48494   -0.292588           
         C         C         0.82734   0.48470   0.48971   0.200002  
         C         C         0.78271   0.39666   0.48883   0.055911  
         C         C         0.05353   0.73928   0.52976   -0.073348           
         H         H         0.96654   0.62912   0.53650   0.132352  
         H         H         0.35571   0.59669   0.14112   0.069740  
         H         H         0.16140   0.56633   0.57310   0.065318  
         C         C         0.39763   0.33926   0.82574   -0.136768           
         C         C         0.37490   0.33916   0.78061   -0.108097           
         C         C         0.29326   0.29635   0.61881   -0.160421           
         C         C         0.27117   0.29664   0.57208   -0.134445           
         C         C         0.09832   0.99669   0.07925   -0.141832           
         C         C         0.12031   0.95400   0.07872   -0.133430           
         C         C         0.18133   0.76796   0.04036   -0.176640           
         C         C         0.20327   0.72537   0.03967   -0.129756           
         H         H         0.56119   0.45165   0.77371   0.111942  
         H         H         0.60106   0.45152   0.69143   0.106769  
         H         H         0.69251   0.43857   0.62150   0.111492  
         H         H         0.73175   0.43691   0.53948   0.110769  
         H         H         0.93546   0.96635   0.93585   0.117076  
         H         H         0.89534   0.89032   0.93872   0.115743  
         H         H         0.82193   0.79572   0.88662   0.118705  
         H         H         0.78326   0.71824   0.88616   0.110768  
         C         C         0.42153   0.58585   0.27165   -0.141601           
         C         C         0.39912   0.58738   0.22550   -0.138850           
         C         C         0.29828   0.60654   0.10452   -0.178096           
         C         C         0.27576   0.60668   0.05868   -0.127680           
         C         C         0.09735   0.68890   0.58179   -0.140362           
         C         C         0.11942   0.64638   0.58226   -0.134341           
         C         C         0.18261   0.46221   0.54808   -0.178252           
         C         C         0.20463   0.41979   0.54699   -0.133042           
         H         H         0.60350   0.68870   0.36395   0.117414  
         H         H         0.64453   0.68962   0.28291   0.119079  
         H         H         0.69972   0.74363   0.13820   0.120681  
         H         H         0.73917   0.74492   0.05545   0.110152  
         H         H         0.93112   0.66522   0.43301   0.116929  
         H         H         0.89121   0.58924   0.43398   0.117438  
         H         H         0.82958   0.47227   0.38975   0.121494  
         H         H         0.79079   0.39482   0.38852   0.109063  
         C         C         0.35045   0.61670   0.78810   0.064263  
         C         C         0.14835   0.12527   0.53024   0.067155  
         C         C         0.43604   0.38723   0.93446   0.182389  
         C         C         0.44535   0.37996   0.87174   -0.074709           
         C         C         0.42169   0.37905   0.82210   0.090733  
         C         C         0.37540   0.37906   0.73008   0.051586  
         N         N         0.32906   0.34455   0.68506   -0.284808           
         C         C         0.30624   0.34805   0.63944   0.200692  
         C         C         0.26015   0.34833   0.54640   0.055167  
         C         C         0.59500   0.39571   0.95831   -0.182570           
         H         H         0.61350   0.40235   0.05457   0.131471  
         C         C         0.97612   0.96976   0.52833   0.180699  
         C         C         0.98629   0.02831   0.53543   -0.179363           
         C         C         0.92222   -0.00127  0.52565   0.092344  
         C         C         0.87661   0.08329   0.52690   0.050379  
         N         N         0.84894   0.16329   0.48309   -0.286775           
         C         C         0.82674   0.20571   0.48754   0.199680  
         C         C         0.78215   0.29323   0.48803   0.053143  
         C         C         0.05597   0.94949   0.52650   -0.072125           
         H         H         0.97167   0.06509   0.54037   0.132286  
         H         H         0.35077   0.58045   0.82200   0.071910  
         H         H         0.16387   0.12352   0.57087   0.066663  
         C         C         0.76069   0.34527   0.48811   0.013939  
         N         N         0.95420   0.84794   0.52422   -0.384561           
         N         N         0.45438   0.38317   0.98720   -0.385577           
         C         C         0.47421   0.37883   0.12221   0.182686  
         C         C         0.48332   0.36878   0.18679   -0.180628           
         C         C         0.47560   0.37331   0.85383   0.183210  
         C         C         0.48548   0.36023   0.79079   -0.181876           
         H         H         0.47073   0.35107   0.75142   0.133471  
         H         H         0.46792   0.36193   0.22576   0.133178  
         C         C         0.06480   0.20275   0.02728   0.181942  
         C         C         0.09595   0.18492   0.02698   -0.180611           
         C         C         0.06482   0.10793   0.02709   0.181655  
         C         C         0.09596   0.12626   0.02664   -0.180397           
         H         H         0.11513   0.21382   0.02609   0.130178  
         H         H         0.11514   0.09764   0.02554   0.130022  
         C         C         0.58022   0.57232   0.69883   -0.145272           
         C         C         0.60295   0.57172   0.74444   -0.135829           
         C         C         0.70637   0.59949   0.86127   -0.181761           
         C         C         0.72920   0.60094   0.90656   -0.133519           
         C         C         0.91588   0.66087   0.47294   -0.139322           
         C         C         0.89369   0.61853   0.47327   -0.106843           
         C         C         0.81870   0.45808   0.43317   -0.158052           
         C         C         0.79687   0.41500   0.43282   -0.132644           
         H         H         0.40144   0.69572   0.61565   0.119429  
         H         H         0.35988   0.69549   0.69562   0.115995  
         H         H         0.30717   0.74642   0.84215   0.120800  
         H         H         0.26771   0.74836   0.92482   0.110696  
         H         H         0.09579   0.71891   0.62060   0.119016  
         H         H         0.13528   0.64351   0.62148   0.108586  
         H         H         0.17328   0.47558   0.59302   0.113270  
         H         H         0.21243   0.40095   0.59128   0.110783  
         C         C         0.60032   0.33926   0.15534   -0.137113           
         C         C         0.62340   0.33958   0.19962   -0.108608           
         C         C         0.70261   0.29528   0.36580   -0.159947           
         C         C         0.72468   0.29511   0.41247   -0.132994           
         C         C         0.91942   0.96412   0.97466   -0.137623           
         C         C         0.89723   0.92179   0.97606   -0.106231           
         C         C         0.81417   0.77625   0.93066   -0.156896           
         C         C         0.79254   0.73264   0.93079   -0.138870           
         H         H         0.43662   0.45886   0.19893   0.111130  
         H         H         0.39636   0.45766   0.28016   0.104975  
         H         H         0.30355   0.44128   0.34463   0.110878  
         H         H         0.26430   0.44119   0.42687   0.109625  
         H         H         0.09568   0.02374   0.12035   0.119145  
         H         H         0.13486   0.94767   0.11968   0.108702  
         H         H         0.17049   0.77887   0.08461   0.111155  
         H         H         0.20951   0.70388   0.08365   0.111047  
         C         C         0.64788   0.37923   0.68260   0.066401  
         C         C         0.85350   0.43520   0.02022   0.068317  
         C         C         0.56452   0.60938   0.53839   0.181200  
         C         C         0.55584   0.61510   0.60168   -0.071482           
         C         C         0.57997   0.61427   0.65054   0.088620  
         C         C         0.62606   0.61330   0.74322   0.053936  
         N         N         0.66984   0.65262   0.79421   -0.285126           
         C         C         0.69252   0.65059   0.84028   0.200830  
         C         C         0.73910   0.65295   0.93251   0.054373  
         C         C         0.40582   0.60248   0.51915   -0.182846           
         H         H         0.38673   0.59733   0.42326   0.130503  
         C         C         0.02545   0.27785   0.02277   0.181964  
         C         C         0.01608   0.33705   0.02594   -0.179756           
         C         C         0.07929   0.30565   0.02777   0.091935  
         C         C         0.12408   0.39228   0.03013   0.051388  
         N         N         0.15104   0.47358   0.98703   -0.294338           
         C         C         0.17306   0.51689   0.99035   0.200037  
         C         C         0.21728   0.60552   0.98611   0.057693  
         C         C         0.94547   0.26054   0.01643   -0.074461           
         H         H         0.03116   0.37341   0.03086   0.133022  
         H         H         0.64519   0.41169   0.64475   0.071051  
         H         H         0.83746   0.43164   0.05971   0.064992  
         C         C         0.60319   0.65821   0.32546   -0.137231           
         C         C         0.62598   0.65895   0.28059   -0.107168           
         C         C         0.70767   0.70376   0.11797   -0.158937           
         C         C         0.72982   0.70410   0.07155   -0.136687           
         C         C         0.90148   0.00090   0.57563   -0.140153           
         C         C         0.87905   0.04271   0.57638   -0.135465           
         C         C         0.81779   0.23141   0.54444   -0.178745           
         C         C         0.79606   0.27449   0.54427   -0.131730           
         H         H         0.43948   0.55422   0.26950   0.113332  
         H         H         0.39955   0.55703   0.18679   0.108123  
         H         H         0.30847   0.56606   0.11916   0.111018  
         H         H         0.26899   0.56635   0.03734   0.108082  
         H         H         0.06696   0.03169   0.43741   0.116488  
         H         H         0.10674   0.10827   0.43930   0.117353  
         H         H         0.17413   0.21518   0.38963   0.121231  
         H         H         0.21279   0.29223   0.38865   0.111078  
         C         C         0.57907   0.41976   0.77550   -0.143013           
         C         C         0.60144   0.41950   0.72935   -0.136648           
         C         C         0.70215   0.39774   0.60760   -0.179408           
         C         C         0.72463   0.39680   0.56187   -0.129592           
         C         C         0.90176   0.30937   0.06789   -0.139746           
         C         C         0.87962   0.35168   0.06867   -0.133257           
         C         C         0.81792   0.53695   0.04097   -0.177512           
         C         C         0.79576   0.57916   0.04252   -0.135793           
         H         H         0.39721   0.30824   0.86455   0.117098  
         H         H         0.35636   0.30843   0.78294   0.118675  
         H         H         0.30139   0.25619   0.63913   0.120069  
         H         H         0.26213   0.25609   0.55545   0.109810  
         H         H         0.06956   0.33702   0.93384   0.117560  
         H         H         0.10920   0.41393   0.93611   0.117116  
         H         H         0.17079   0.52791   0.88980   0.121004  
         H         H         0.20920   0.60630   0.88574   0.109316  
         C         C         0.64950   0.38427   0.29128   0.068748  
         C         C         0.85241   0.87574   0.02822   0.067527  
         C         C         0.56417   0.61035   0.43407   0.183782  
         C         C         0.55516   0.61794   0.37092   -0.074114           
         C         C         0.57899   0.61878   0.32177   0.090099  
         C         C         0.62549   0.61978   0.23043   0.052006  
         N         N         0.67156   0.65517   0.18397   -0.288069           
         C         C         0.69433   0.65188   0.13839   0.201910  
         C         C         0.74033   0.65282   0.04535   0.055729  
         C         C         0.40566   0.60386   0.45468   -0.182898           
         H         H         0.38706   0.59454   0.55073   0.131406  
         C         C         0.02519   0.03294   0.02595   0.179618  
         C         C         0.01550   0.97388   0.03198   -0.179792           
         C         C         0.07911   0.00488   0.02714   0.091910  
         C         C         0.12371   0.91827   0.02614   0.049582  
         N         N         0.15056   0.83921   0.98039   -0.288784           
         C         C         0.17247   0.79598   0.98395   0.201917  
         C         C         0.21732   0.70893   0.98328   0.053890  
         C         C         0.94510   0.05054   0.02131   -0.074587           
         H         H         0.03051   0.93756   0.03746   0.132914  
         H         H         0.64925   0.41972   0.32519   0.071427  
         H         H         0.83763   0.87671   0.06990   0.065837  
         C         C         0.23902   0.65730   0.98368   0.012902  
         N         N         0.04599   0.15521   0.02714   -0.385094           
         N         N         0.54585   0.61587   0.48641   -0.386628           
         C         C         0.52577   0.62145   0.62095   0.183550  
         C         C         0.51644   0.63119   0.68517   -0.181366           
         C         C         0.52506   0.62563   0.35210   0.183351  
         C         C         0.51559   0.63936   0.28851   -0.179681           
         H         H         0.53062   0.64778   0.24927   0.132539  
         H         H         0.53161   0.63778   0.72455   0.134138  
         C         C         0.93498   0.80119   0.51987   0.181978  
         C         C         0.90440   0.82036   0.51047   -0.181394           
         C         C         0.93605   0.89601   0.51999   0.180380  
         C         C         0.90506   0.87902   0.51042   -0.180908           
         H         H         0.88525   0.79211   0.50368   0.130712  
         H         H         0.88649   0.90844   0.50346   0.130885  
         N         N         0.50017   0.62042   0.39103   -0.387385           
         N         N         0.50074   0.61755   0.58211   -0.387940           
         Cu        Cu        0.49985   0.38216   0.98847   0.644059  
         N         N         0.50030   0.37956   0.89316   -0.385977           
         N         N         0.49935   0.38300   0.08383   -0.387400           
         Cu        Cu        0.50050   0.61828   0.48662   0.645559  
         N         N         0.99865   0.75945   0.52683   -0.384300           
         N         N         0.00063   0.93327   0.52538   -0.384533           
         Cu        Cu        0.00040   0.15536   0.02118   0.642395  
         N         N         0.00053   0.24217   0.01847   -0.384241           
         N         N         0.00038   0.06873   0.02179   -0.384239           
         Cu        Cu        -0.00037  0.84645   0.52625   0.642567 

