
##########################################################################
#               Crystallographic Information Format file
#               Produced by PyCifRW module
#
#  This is a CIF file.  CIF has been adopted by the International
#  Union of Crystallography as the standard for data archiving and
#  transmission.
#
#  For information on this file format, follow the CIF links at
#  http://www.iucr.org
##########################################################################

data_image0

_cell_length_a                          44.4035
_cell_length_b                          23.2369
_cell_length_c                          21.3085
_cell_angle_alpha                       89.789
_cell_angle_beta                        90.1636
_cell_angle_gamma                       90.1183
_symmetry_space_group_name_H-M          'P 1'
_space_group_name_Hall                  'P 1'
loop_
  _atom_site_type_symbol
  _atom_site_label
  _atom_site_fract_x
  _atom_site_fract_y
  _atom_site_fract_z
  _atom_site_charge
         C         C         0.42156   0.57574   0.70243   -0.128785           
         C         C         0.39880   0.57381   0.74725   -0.135365           
         C         C         0.29347   0.59087   0.85870   -0.180882           
         C         C         0.27145   0.59257   0.90509   -0.132511           
         C         C         0.07851   0.65558   0.48872   -0.121174           
         C         C         0.10122   0.61464   0.48713   -0.111388           
         C         C         0.18224   0.46807   0.43317   -0.159268           
         C         C         0.20450   0.42611   0.43202   -0.134487           
         H         H         0.60702   0.67342   0.60664   0.122286  
         H         H         0.64683   0.67175   0.68974   0.118488  
         H         H         0.68812   0.73374   0.85890   0.122458  
         H         H         0.72772   0.73477   0.94140   0.110428  
         H         H         0.89559   0.74299   0.59656   0.119320  
         H         H         0.85532   0.66842   0.59703   0.109539  
         H         H         0.82019   0.49246   0.59056   0.112335  
         H         H         0.78050   0.41774   0.58872   0.110615  
         C         C         0.39550   0.35531   0.14612   -0.125577           
         C         C         0.37341   0.35534   0.19204   -0.106969           
         C         C         0.29671   0.30649   0.36039   -0.159783           
         C         C         0.27474   0.30547   0.40674   -0.133321           
         C         C         0.07697   0.94670   0.98294   -0.126599           
         C         C         0.09934   0.90511   0.98072   -0.106755           
         C         C         0.18281   0.76083   0.92810   -0.159768           
         C         C         0.20560   0.71977   0.92828   -0.133099           
         H         H         0.55978   0.45356   0.20976   0.112926  
         H         H         0.60127   0.45351   0.28858   0.108811  
         H         H         0.70289   0.44393   0.32986   0.113279  
         H         H         0.74194   0.44387   0.41234   0.107739  
         H         H         0.89950   0.02626   0.10727   0.120336  
         H         H         0.85963   0.95061   0.10945   0.110846  
         H         H         0.83000   0.77013   0.08447   0.112814  
         H         H         0.79227   0.69232   0.08644   0.108865  
         C         C         0.35280   0.38116   0.67950   0.064058  
         C         C         0.14861   0.42361   0.02749   0.065313  
         C         C         0.43339   0.60600   0.53670   0.148214  
         C         C         0.44253   0.61217   0.60057   0.028975  
         C         C         0.41878   0.61115   0.64896   0.071519  
         C         C         0.37308   0.60869   0.74074   0.059354  
         N         N         0.32768   0.64414   0.78750   -0.279858           
         C         C         0.30552   0.64223   0.83409   0.200056  
         C         C         0.26055   0.64494   0.92851   0.055105  
         C         C         0.59411   0.58226   0.52304   -0.205690           
         H         H         0.61243   0.56794   0.42816   0.124509  
         C         C         0.97555   0.27147   0.02583   0.150378  
         C         C         0.98466   0.32916   0.04402   -0.201583           
         C         C         0.92151   0.29761   0.01863   0.076448  
         C         C         0.87643   0.38319   0.01622   0.056870  
         N         N         0.85206   0.46959   0.97822   -0.282607           
         C         C         0.82895   0.51031   0.98347   0.199299  
         C         C         0.78271   0.59453   0.98769   0.053573  
         C         C         0.05503   0.25129   0.02813   0.030796  
         H         H         0.96975   0.36438   0.05541   0.125907  
         H         H         0.35652   0.41104   0.63999   0.072869  
         H         H         0.16566   0.41855   0.06471   0.067270  
         C         C         0.39409   0.65234   0.33044   -0.121893           
         C         C         0.37203   0.65362   0.28412   -0.112548           
         C         C         0.29343   0.70106   0.11294   -0.160210           
         C         C         0.27147   0.69952   0.06615   -0.134278           
         C         C         0.10234   0.00679   0.57192   -0.127781           
         C         C         0.12454   0.04926   0.57131   -0.133889           
         C         C         0.18310   0.24041   0.54015   -0.179637           
         C         C         0.20483   0.28365   0.54026   -0.127289           
         H         H         0.55811   0.55308   0.26744   0.116113  
         H         H         0.59877   0.55118   0.18742   0.110010  
         H         H         0.69399   0.55140   0.12840   0.111685  
         H         H         0.73203   0.55272   0.04397   0.109123  
         H         H         0.93976   0.05297   0.44435   0.120303  
         H         H         0.89880   0.12693   0.44531   0.118931  
         H         H         0.82134   0.21360   0.38784   0.120426  
         H         H         0.78164   0.28855   0.38795   0.110093  
         C         C         0.42324   0.41767   0.76905   -0.128231           
         C         C         0.40096   0.41746   0.72297   -0.136686           
         C         C         0.29824   0.40351   0.60796   -0.179930           
         C         C         0.27584   0.40419   0.56211   -0.128954           
         C         C         0.10252   0.29402   0.07250   -0.126349           
         C         C         0.12469   0.33649   0.07242   -0.134548           
         C         C         0.18514   0.52757   0.04477   -0.178175           
         C         C         0.20701   0.57064   0.04325   -0.133273           
         H         H         0.60856   0.32856   0.87168   0.119231  
         H         H         0.64713   0.32620   0.78636   0.117626  
         H         H         0.70081   0.26573   0.64617   0.119909  
         H         H         0.74046   0.26250   0.56445   0.111012  
         H         H         0.94176   0.34563   0.94288   0.122456  
         H         H         0.90158   0.42104   0.94046   0.120880  
         H         H         0.82933   0.52644   0.88395   0.120721  
         H         H         0.78909   0.60004   0.88745   0.108974  
         C         C         0.35167   0.39452   0.29092   0.066088  
         C         C         0.14698   0.86262   0.02366   0.065296  
         C         C         0.43425   0.60852   0.43444   0.148035  
         C         C         0.44420   0.61847   0.37156   0.028942  
         C         C         0.42089   0.62062   0.32206   0.070022  
         C         C         0.37575   0.62221   0.22823   0.061282  
         N         N         0.32918   0.65418   0.18134   -0.278284           
         C         C         0.30714   0.65006   0.13428   0.199945  
         C         C         0.26123   0.64717   0.04100   0.053562  
         C         C         0.59469   0.58302   0.45869   -0.204768           
         H         H         0.61128   0.56650   0.55492   0.122194  
         C         C         0.97494   0.01755   0.02907   0.146561  
         C         C         0.98358   0.95957   0.04721   -0.200363           
         C         C         0.92079   0.99287   0.02437   0.078024  
         C         C         0.87506   0.90883   0.02506   0.054731  
         N         N         0.84716   0.83012   0.98046   -0.281962           
         C         C         0.82505   0.78732   0.98514   0.201487  
         C         C         0.78130   0.69811   0.98787   0.054578  
         C         C         0.05449   0.03591   0.02880   0.030365  
         H         H         0.96827   0.92490   0.05899   0.129129  
         H         H         0.35393   0.42729   0.32780   0.073710  
         H         H         0.16433   0.86642   0.06047   0.067546  
         C         C         0.76033   0.64514   0.98957   0.013513  
         C         C         0.95380   0.14506   0.02790   -0.088869           
         H         H         0.97675   0.14538   0.04465   0.122570  
         N         N         0.45103   0.62104   0.48657   -0.335475           
         C         C         0.47269   0.61924   0.61991   0.036387  
         C         C         0.48288   0.63943   0.68135   -0.171539           
         C         C         0.47467   0.62538   0.35445   0.038828  
         C         C         0.48591   0.64765   0.29459   -0.174139           
         H         H         0.47176   0.66496   0.25759   0.121521  
         H         H         0.46801   0.65415   0.71818   0.121727  
         C         C         0.06492   0.80442   0.52713   0.034662  
         C         C         0.09519   0.82488   0.51140   -0.176048           
         C         C         0.06474   0.90384   0.52509   0.036381  
         C         C         0.09505   0.88373   0.51010   -0.176083           
         H         H         0.11404   0.79722   0.50049   0.119886  
         H         H         0.11370   0.91160   0.49778   0.120833  
         C         C         0.57901   0.42510   0.20420   -0.129236           
         C         C         0.60220   0.42470   0.24842   -0.133422           
         C         C         0.70884   0.40379   0.35318   -0.182199           
         C         C         0.73106   0.40358   0.39967   -0.135428           
         C         C         0.92305   0.34389   0.97567   -0.124820           
         C         C         0.90078   0.38578   0.97411   -0.110622           
         C         C         0.81901   0.53805   0.92834   -0.156212           
         C         C         0.79628   0.57907   0.93064   -0.130791           
         H         H         0.39427   0.32541   0.10703   0.122612  
         H         H         0.35457   0.32538   0.19032   0.116620  
         H         H         0.30648   0.26688   0.34271   0.121668  
         H         H         0.26747   0.26433   0.42593   0.112939  
         H         H         0.10292   0.25952   0.10717   0.120203  
         H         H         0.14257   0.33550   0.10751   0.108100  
         H         H         0.17688   0.51204   0.08977   0.114318  
         H         H         0.21572   0.58756   0.08721   0.109652  
         C         C         0.60462   0.64577   0.64761   -0.122720           
         C         C         0.62686   0.64477   0.69352   -0.112482           
         C         C         0.69962   0.69433   0.87247   -0.163597           
         C         C         0.72197   0.69459   0.91827   -0.127147           
         C         C         0.92193   0.05110   0.47921   -0.127347           
         C         C         0.89925   0.09218   0.47966   -0.106766           
         C         C         0.81386   0.23264   0.43164   -0.158518           
         C         C         0.79163   0.27478   0.43212   -0.139627           
         H         H         0.44159   0.54919   0.70755   0.116424  
         H         H         0.40088   0.54520   0.78766   0.109424  
         H         H         0.30090   0.54964   0.84038   0.112408  
         H         H         0.26244   0.55230   0.92315   0.110416  
         H         H         0.10217   0.97378   0.60825   0.120729  
         H         H         0.14196   0.04964   0.60738   0.110038  
         H         H         0.17255   0.22722   0.58396   0.114505  
         H         H         0.21120   0.30336   0.58457   0.108882  
         C         C         0.64977   0.61378   0.18659   0.064549  
         C         C         0.85141   0.57485   0.52466   0.065148  
         C         C         0.56612   0.39838   0.03844   0.148149  
         C         C         0.55658   0.39160   0.10212   0.029249  
         C         C         0.58046   0.38987   0.15069   0.072968  
         C         C         0.62696   0.38753   0.24156   0.059466  
         N         N         0.67211   0.34941   0.28900   -0.279615           
         C         C         0.69458   0.35226   0.33529   0.202349  
         C         C         0.73943   0.35260   0.43039   0.052918  
         C         C         0.40443   0.41630   0.01779   -0.203231           
         H         H         0.38630   0.42604   0.92177   0.124983  
         C         C         0.02528   0.72698   0.53359   0.147571  
         C         C         0.01595   0.66971   0.55315   -0.199602           
         C         C         0.07958   0.70158   0.53181   0.073790  
         C         C         0.12556   0.61772   0.52958   0.056678  
         N         N         0.15025   0.53415   0.48799   -0.282165           
         C         C         0.17310   0.49276   0.49021   0.200527  
         C         C         0.21832   0.40650   0.48747   0.053811  
         C         C         0.94576   0.74578   0.52463   0.029981  
         H         H         0.03069   0.63525   0.56825   0.125779  
         H         H         0.64561   0.58545   0.14618   0.072301  
         H         H         0.83296   0.58306   0.55784   0.066595  
         C         C         0.60577   0.35472   0.82961   -0.120997           
         C         C         0.62721   0.35321   0.78237   -0.109621           
         C         C         0.70712   0.30449   0.62065   -0.154828           
         C         C         0.72949   0.30309   0.57493   -0.141204           
         C         C         0.89863   0.99325   0.07125   -0.128821           
         C         C         0.87635   0.95099   0.07220   -0.134507           
         C         C         0.81795   0.75888   0.04173   -0.178528           
         C         C         0.79671   0.71482   0.04258   -0.126742           
         H         H         0.44286   0.44548   0.76453   0.115982  
         H         H         0.40297   0.44558   0.68219   0.111474  
         H         H         0.30810   0.44371   0.62423   0.111961  
         H         H         0.26884   0.44513   0.54202   0.108349  
         H         H         0.05862   0.94649   0.94898   0.123355  
         H         H         0.09903   0.87162   0.94516   0.118073  
         H         H         0.17395   0.77823   0.88438   0.120765  
         H         H         0.21448   0.70474   0.88379   0.106454  
         C         C         0.57801   0.58003   0.27295   -0.130582           
         C         C         0.60076   0.57928   0.22806   -0.135337           
         C         C         0.70404   0.59196   0.11356   -0.178871           
         C         C         0.72576   0.59280   0.06657   -0.127524           
         C         C         0.89683   0.70642   0.56498   -0.121642           
         C         C         0.87433   0.66460   0.56513   -0.137840           
         C         C         0.81339   0.47336   0.54618   -0.177262           
         C         C         0.79114   0.43083   0.54504   -0.136856           
         H         H         0.39114   0.67627   0.37376   0.122733  
         H         H         0.35149   0.67843   0.29014   0.121233  
         H         H         0.30076   0.74176   0.13292   0.121104  
         H         H         0.26192   0.73974   0.04921   0.111012  
         H         H         0.05978   0.65340   0.45580   0.120614  
         H         H         0.10088   0.57969   0.45325   0.120923  
         H         H         0.17165   0.48293   0.39002   0.122751  
         H         H         0.21096   0.40746   0.38736   0.112110  
         C         C         0.64715   0.60717   0.79546   0.066343  
         C         C         0.85228   0.13262   0.52676   0.065935  
         C         C         0.56615   0.39768   0.93608   0.146997  
         C         C         0.55643   0.38974   0.87281   0.030247  
         C         C         0.57963   0.38887   0.82321   0.069024  
         C         C         0.62361   0.38671   0.72757   0.060929  
         N         N         0.66958   0.35357   0.68082   -0.282357           
         C         C         0.69171   0.35574   0.63419   0.199275  
         C         C         0.73818   0.35317   0.54277   0.058837  
         C         C         0.40432   0.41400   0.95350   -0.206302           
         H         H         0.38653   0.43063   0.04835   0.123602  
         C         C         0.02526   0.98129   0.52907   0.150371  
         C         C         0.01612   0.03952   0.54469   -0.199307           
         C         C         0.07939   0.00683   0.52630   0.077109  
         C         C         0.12489   0.09185   0.52415   0.055604  
         N         N         0.15115   0.17308   0.47949   -0.283055           
         C         C         0.17355   0.21542   0.48326   0.201976  
         C         C         0.21827   0.30290   0.48434   0.053038  
         C         C         0.94593   0.96138   0.52281   0.032011  
         H         H         0.03098   0.07498   0.55625   0.127106  
         H         H         0.64491   0.57315   0.83126   0.074381  
         H         H         0.83645   0.12935   0.56631   0.068207  
         C         C         0.23996   0.35477   0.48539   0.012966  
         C         C         0.04670   0.85409   0.53577   -0.090123           
         H         H         0.02366   0.85431   0.55164   0.123077  
         N         N         0.54867   0.38543   0.98740   -0.334662           
         C         C         0.52628   0.38626   0.12071   0.037209  
         C         C         0.51552   0.36688   0.18211   -0.173190           
         C         C         0.52608   0.38182   0.85469   0.036402  
         C         C         0.51568   0.35943   0.79422   -0.169769           
         H         H         0.53038   0.34428   0.75736   0.120818  
         H         H         0.52991   0.35204   0.21999   0.122084  
         C         C         0.93577   0.19459   0.01630   0.035292  
         C         C         0.90561   0.17399   -0.00037  -0.175882           
         C         C         0.93579   0.09526   0.01820   0.034263  
         C         C         0.90563   0.11511   0.00085   -0.171194           
         H         H         0.88688   0.20141   0.98661   0.118297  
         H         H         0.88698   0.08699   0.98906   0.117819  
         C         C         0.42198   0.43178   0.20057   -0.133504           
         C         C         0.39931   0.43301   0.24567   -0.132080           
         C         C         0.29468   0.41049   0.35870   -0.180770           
         C         C         0.27201   0.40886   0.40385   -0.131722           
         C         C         0.07827   0.34108   0.98400   -0.123898           
         C         C         0.10087   0.38250   0.98279   -0.110398           
         C         C         0.18294   0.52940   0.93145   -0.156227           
         C         C         0.20492   0.57212   0.93049   -0.134123           
         H         H         0.60649   0.32519   0.10288   0.121826  
         H         H         0.64708   0.32195   0.18474   0.121333  
         H         H         0.69312   0.26056   0.34986   0.122345  
         H         H         0.73089   0.26122   0.43578   0.110593  
         H         H         0.89614   0.26004   0.09459   0.120622  
         H         H         0.85667   0.33591   0.09316   0.110109  
         H         H         0.82460   0.50844   0.08455   0.112259  
         H         H         0.78417   0.58095   0.08781   0.109449  
         C         C         0.39284   0.64573   0.64238   -0.124647           
         C         C         0.37059   0.64511   0.68797   -0.108262           
         C         C         0.29423   0.69489   0.85628   -0.162777           
         C         C         0.27263   0.69604   0.90349   -0.132518           
         C         C         0.07935   0.05036   0.47995   -0.125754           
         C         C         0.10194   0.09178   0.47840   -0.108446           
         C         C         0.18591   0.23641   0.42694   -0.159080           
         C         C         0.20810   0.27886   0.42775   -0.138895           
         H         H         0.55515   0.55026   0.71201   0.115450  
         H         H         0.59582   0.54526   0.79232   0.110996  
         H         H         0.69962   0.55126   0.83825   0.113443  
         H         H         0.74001   0.55276   0.91837   0.107465  
         H         H         0.89887   0.96767   0.60190   0.119742  
         H         H         0.85901   0.04282   0.60504   0.111886  
         H         H         0.82940   0.22767   0.58814   0.113875  
         H         H         0.79063   0.30358   0.58813   0.112204  
         C         C         0.35283   0.62202   0.17883   0.064481  
         C         C         0.14984   0.57542   0.52840   0.066609  
         C         C         0.43414   0.39735   0.03754   0.146320  
         C         C         0.44393   0.39274   0.10104   0.029533  
         C         C         0.42032   0.39324   0.14989   0.073600  
         C         C         0.37489   0.39439   0.24238   0.056234  
         N         N         0.33014   0.35708   0.29098   -0.280120           
         C         C         0.30763   0.35917   0.33676   0.199533  
         C         C         0.26167   0.35653   0.42899   0.055888  
         C         C         0.59555   0.41942   0.01938   -0.205448           
         H         H         0.61328   0.43331   0.92384   0.123906  
         C         C         0.97618   0.72664   0.53069   0.149665  
         C         C         0.98509   0.66955   0.55157   -0.202148           
         C         C         0.92183   0.70136   0.52486   0.074735  
         C         C         0.87581   0.61713   0.52438   0.058665  
         N         N         0.85119   0.53120   0.48731   -0.282473           
         C         C         0.82805   0.49024   0.49052   0.201407  
         C         C         0.78259   0.40400   0.48883   0.054822  
         C         C         0.05583   0.74628   0.53111   0.033305  
         H         H         0.97006   0.63488   0.56499   0.126549  
         H         H         0.35722   0.59353   0.13873   0.073001  
         H         H         0.16808   0.58138   0.56293   0.067394  
         C         C         0.39490   0.34694   0.82892   -0.123675           
         C         C         0.37304   0.34569   0.78221   -0.110298           
         C         C         0.29368   0.29996   0.61493   -0.162007           
         C         C         0.27177   0.30109   0.56801   -0.134378           
         C         C         0.10174   0.99156   0.07195   -0.127760           
         C         C         0.12383   0.94913   0.07060   -0.135181           
         C         C         0.18149   0.75760   0.04145   -0.179857           
         C         C         0.20395   0.71588   0.04106   -0.129032           
         H         H         0.55581   0.44800   0.76269   0.112941  
         H         H         0.59491   0.44783   0.67943   0.111944  
         H         H         0.68953   0.44693   0.61296   0.111207  
         H         H         0.72933   0.44402   0.53287   0.111544  
         H         H         0.93733   0.94964   0.94208   0.122434  
         H         H         0.89592   0.87607   0.94159   0.120011  
         H         H         0.81657   0.79032   0.88597   0.120840  
         H         H         0.77783   0.71298   0.88812   0.109944  
         C         C         0.42468   0.58991   0.26578   -0.126840           
         C         C         0.40226   0.59001   0.22002   -0.137170           
         C         C         0.29715   0.59740   0.10902   -0.181985           
         C         C         0.27455   0.59629   0.06343   -0.127617           
         C         C         0.10383   0.70434   0.57442   -0.126123           
         C         C         0.12634   0.66265   0.57370   -0.133856           
         C         C         0.18638   0.47239   0.54611   -0.178702           
         C         C         0.20848   0.42988   0.54452   -0.132696           
         H         H         0.60883   0.67619   0.37523   0.122658  
         H         H         0.64902   0.67628   0.29339   0.120473  
         H         H         0.70363   0.73431   0.14982   0.120955  
         H         H         0.74144   0.73584   0.06414   0.107651  
         H         H         0.94267   0.64942   0.45340   0.119951  
         H         H         0.90171   0.57542   0.45252   0.119985  
         H         H         0.83194   0.47415   0.39171   0.120735  
         H         H         0.79227   0.39867   0.38994   0.108814  
         C         C         0.34972   0.60799   0.78897   0.065750  
         C         C         0.14901   0.13469   0.52330   0.066522  
         C         C         0.43395   0.39365   0.93543   0.150456  
         C         C         0.44378   0.38501   0.87241   0.029180  
         C         C         0.42042   0.38294   0.82297   0.070856  
         C         C         0.37566   0.38131   0.72884   0.059849  
         N         N         0.32974   0.34728   0.68177   -0.280165           
         C         C         0.30767   0.35106   0.63487   0.200862  
         C         C         0.26208   0.35320   0.54130   0.055335  
         C         C         0.59553   0.41904   0.95501   -0.205546           
         H         H         0.61336   0.43382   0.05048   0.124407  
         C         C         0.97625   0.98119   0.52757   0.149573  
         C         C         0.98527   0.03943   0.54398   -0.198631           
         C         C         0.92194   0.00552   0.52307   0.077460  
         C         C         0.87627   0.08972   0.52505   0.054996  
         N         N         0.84955   0.17142   0.48359   -0.281512           
         C         C         0.82710   0.21341   0.48793   0.202787  
         C         C         0.78221   0.30035   0.48834   0.053792  
         C         C         0.05565   0.96193   0.52692   0.029880  
         H         H         0.97036   0.07481   0.55489   0.126944  
         H         H         0.35249   0.57658   0.82737   0.073752  
         H         H         0.16551   0.13185   0.56184   0.067134  
         C         C         0.76069   0.35243   0.48779   0.014047  
         C         C         0.95495   0.85352   0.52985   -0.090070           
         H         H         0.97776   0.85343   0.54743   0.122481  
         N         N         0.45164   0.38376   0.98690   -0.334303           
         C         C         0.47430   0.38703   0.11991   0.037624  
         C         C         0.48469   0.36746   0.18164   -0.169163           
         C         C         0.47413   0.37924   0.85457   0.038240  
         C         C         0.48488   0.35778   0.79423   -0.174854           
         H         H         0.47050   0.34092   0.75745   0.122274  
         H         H         0.46994   0.35328   0.21908   0.121402  
         C         C         0.06403   0.19314   0.02561   0.036218  
         C         C         0.09443   0.17274   0.01132   -0.175049           
         C         C         0.06383   0.09383   0.02604   0.037849  
         C         C         0.09429   0.11390   0.01153   -0.179971           
         H         H         0.11336   0.20031   -0.00003  0.120508  
         H         H         0.11305   0.08601   0.00052   0.121761  
         C         C         0.57530   0.57659   0.70715   -0.128242           
         C         C         0.59809   0.57409   0.75219   -0.136466           
         C         C         0.70560   0.59148   0.86116   -0.181974           
         C         C         0.72861   0.59257   0.90599   -0.133838           
         C         C         0.92349   0.65326   0.48473   -0.122959           
         C         C         0.90077   0.61208   0.48407   -0.109572           
         C         C         0.82015   0.46209   0.43442   -0.156907           
         C         C         0.79779   0.42015   0.43373   -0.130362           
         H         H         0.39092   0.67369   0.60150   0.123185  
         H         H         0.35080   0.67247   0.68434   0.116866  
         H         H         0.30337   0.73455   0.83676   0.122567  
         H         H         0.26491   0.73735   0.92094   0.112657  
         H         H         0.10454   0.73898   0.60858   0.120335  
         H         H         0.14478   0.66449   0.60750   0.108281  
         H         H         0.17864   0.48893   0.59094   0.111740  
         H         H         0.21795   0.41413   0.58843   0.109991  
         C         C         0.60546   0.35293   0.14380   -0.121317           
         C         C         0.62806   0.35109   0.18895   -0.113170           
         C         C         0.70374   0.30061   0.36431   -0.162885           
         C         C         0.72511   0.30127   0.41209   -0.128043           
         C         C         0.92001   0.94974   0.97808   -0.128026           
         C         C         0.89718   0.90882   0.97784   -0.109289           
         C         C         0.81052   0.76935   0.92986   -0.160782           
         C         C         0.78882   0.72596   0.93148   -0.138821           
         H         H         0.44088   0.46157   0.20334   0.116288  
         H         H         0.40038   0.46419   0.28368   0.108151  
         H         H         0.30205   0.45158   0.33940   0.112612  
         H         H         0.26216   0.44903   0.41969   0.107750  
         H         H         0.10232   0.02509   0.10744   0.121438  
         H         H         0.14185   0.94931   0.10539   0.111116  
         H         H         0.17144   0.77076   0.08562   0.115097  
         H         H         0.21136   0.69704   0.08526   0.108322  
         C         C         0.64617   0.38639   0.67775   0.064334  
         C         C         0.85244   0.42603   0.01609   0.067921  
         C         C         0.56497   0.60509   0.54094   0.149314  
         C         C         0.55500   0.61226   0.60412   0.030424  
         C         C         0.57836   0.61182   0.65366   0.071004  
         C         C         0.62403   0.60855   0.74635   0.061349  
         N         N         0.66833   0.64528   0.79740   -0.277188           
         C         C         0.69074   0.64251   0.84372   0.200164  
         C         C         0.73735   0.64399   0.93515   0.053866  
         C         C         0.40458   0.58322   0.51602   -0.205312           
         H         H         0.38801   0.56940   0.41949   0.124069  
         C         C         0.02461   0.27085   0.02958   0.147244  
         C         C         0.01550   0.32880   0.04636   -0.199525           
         C         C         0.07885   0.29594   0.02851   0.076502  
         C         C         0.12439   0.38094   0.02733   0.056596  
         N         N         0.15021   0.46388   0.98566   -0.282093           
         C         C         0.17292   0.50567   0.98860   0.199175  
         C         C         0.21762   0.59332   0.98634   0.053505  
         C         C         0.94503   0.25258   0.02000   0.029992  
         H         H         0.03036   0.36369   0.05978   0.126778  
         H         H         0.64178   0.41489   0.63736   0.072808  
         H         H         0.83419   0.41841   0.04998   0.064888  
         C         C         0.60675   0.64898   0.33400   -0.123818           
         C         C         0.62914   0.64913   0.28864   -0.112738           
         C         C         0.70988   0.69484   0.12591   -0.159164           
         C         C         0.73115   0.69530   0.07800   -0.133775           
         C         C         0.89878   0.00262   0.56784   -0.125756           
         C         C         0.87651   0.04471   0.56941   -0.136462           
         C         C         0.81825   0.23966   0.54447   -0.179986           
         C         C         0.79643   0.28272   0.54419   -0.130341           
         H         H         0.44515   0.56508   0.25915   0.117069  
         H         H         0.40507   0.56472   0.17752   0.111846  
         H         H         0.30660   0.55730   0.12667   0.112572  
         H         H         0.26713   0.55504   0.04495   0.107923  
         H         H         0.06161   0.05015   0.44463   0.122486  
         H         H         0.10247   0.12470   0.44198   0.118217  
         H         H         0.17795   0.21850   0.38281   0.120638  
         H         H         0.21743   0.29403   0.38359   0.110670  
         C         C         0.57588   0.42159   0.76794   -0.125061           
         C         C         0.59772   0.42114   0.72119   -0.137300           
         C         C         0.70033   0.40624   0.60197   -0.177638           
         C         C         0.72308   0.40459   0.55726   -0.128864           
         C         C         0.89717   0.29505   0.06066   -0.125086           
         C         C         0.87515   0.33757   0.05976   -0.136520           
         C         C         0.81612   0.52694   0.04099   -0.178183           
         C         C         0.79343   0.56831   0.04275   -0.135633           
         H         H         0.39293   0.31942   0.87010   0.122845  
         H         H         0.35351   0.31746   0.78551   0.118226  
         H         H         0.30078   0.25959   0.63620   0.122065  
         H         H         0.26198   0.26077   0.55216   0.111041  
         H         H         0.06004   0.34208   0.94979   0.121816  
         H         H         0.10096   0.41668   0.94774   0.120555  
         H         H         0.17312   0.51329   0.88810   0.120432  
         H         H         0.21214   0.58959   0.88559   0.110694  
         C         C         0.65079   0.38710   0.28913   0.067097  
         C         C         0.85094   0.86606   0.02587   0.065122  
         C         C         0.56584   0.60606   0.43869   0.148408  
         C         C         0.55677   0.61449   0.37504   0.029793  
         C         C         0.58067   0.61465   0.32680   0.071367  
         C         C         0.62653   0.61414   0.23501   0.059487  
         N         N         0.67335   0.64630   0.19009   -0.281381           
         C         C         0.69530   0.64342   0.14314   0.200077  
         C         C         0.73962   0.64439   0.04754   0.055759  
         C         C         0.40519   0.58450   0.45167   -0.206561           
         H         H         0.38688   0.56675   0.54608   0.123215  
         C         C         0.02393   0.01695   0.03148   0.151427  
         C         C         0.01443   0.95910   0.04871   -0.201250           
         C         C         0.07796   0.99083   0.02821   0.076516  
         C         C         0.12309   0.90567   0.02475   0.056332  
         N         N         0.14818   0.82314   0.98124   -0.280579           
         C         C         0.17085   0.78146   0.98469   0.201245  
         C         C         0.21685   0.69682   0.98471   0.053326  
         C         C         0.94474   0.03729   0.02377   0.033054  
         H         H         0.02904   0.92374   0.06193   0.129440  
         H         H         0.64912   0.41980   0.32620   0.073273  
         H         H         0.83593   0.86667   0.06692   0.068270  
         C         C         0.23900   0.64575   0.98513   0.014973  
         C         C         0.04574   0.14362   0.03516   -0.090831           
         H         H         0.02245   0.14362   0.04956   0.123773  
         N         N         0.54818   0.61921   0.48925   -0.335442           
         C         C         0.52464   0.61937   0.62153   0.034978  
         C         C         0.51370   0.63954   0.68230   -0.171044           
         C         C         0.52664   0.62272   0.35592   0.036135  
         C         C         0.51671   0.64575   0.29531   -0.169119           
         H         H         0.53170   0.66105   0.25878   0.121259  
         H         H         0.52799   0.65445   0.72018   0.121860  
         C         C         0.93688   0.80389   0.51914   0.035833  
         C         C         0.90685   0.82424   0.50127   -0.174475           
         C         C         0.93703   0.90323   0.51860   0.034802  
         C         C         0.90690   0.88310   0.50127   -0.178290           
         H         H         0.88816   0.79657   0.48867   0.117581  
         H         H         0.88834   0.91109   0.48861   0.121696  
         C         C         0.50027   0.61053   0.39142   -0.095556           
         H         H         0.49970   0.58939   0.43663   0.123945  
         C         C         0.49886   0.60749   0.58391   -0.093684           
         H         H         0.49916   0.58836   0.53786   0.123131  
         C         C         0.50004   0.39364   0.89095   -0.095907           
         H         H         0.49975   0.41380   0.93650   0.123114  
         C         C         0.50034   0.39849   0.08333   -0.094944           
         H         H         0.50058   0.41724   0.03687   0.124069  
         N         N         0.00086   0.76053   0.51953   -0.334841           
         N         N         0.00079   0.94687   0.51830   -0.334368           
         N         N         0.00008   0.23705   0.01671   -0.334498           
         N         N         -0.00026  0.05141   0.01916   -0.334996 

