
##########################################################################
#               Crystallographic Information Format file
#               Produced by PyCifRW module
#
#  This is a CIF file.  CIF has been adopted by the International
#  Union of Crystallography as the standard for data archiving and
#  transmission.
#
#  For information on this file format, follow the CIF links at
#  http://www.iucr.org
##########################################################################

data_image0

_cell_length_a                          18.6137
_cell_length_b                          18.7025
_cell_length_c                          8.22712
_cell_angle_alpha                       118.917
_cell_angle_beta                        64.3823
_cell_angle_gamma                       119.531
_symmetry_space_group_name_H-M          'P 1'
_space_group_name_Hall                  'P 1'
loop_
  _atom_site_type_symbol
  _atom_site_label
  _atom_site_fract_x
  _atom_site_fract_y
  _atom_site_fract_z
  _atom_site_charge
         C         C         0.61182   0.24460   0.24310   0.268090  
         C         C         0.69825   0.27764   0.24645   -0.057778           
         C         C         0.49252   0.26478   0.22676   0.091741  
         N         N         0.44011   0.18755   0.23789   -0.285638           
         C         C         0.35396   0.15327   0.23866   0.194671  
         C         C         0.30714   0.06590   0.23063   -0.152362           
         C         C         0.22079   0.02737   0.23530   -0.120797           
         C         C         0.17645   0.07399   0.24939   0.062432  
         C         C         0.22391   0.16237   0.26247   -0.114701           
         C         C         0.31016   0.20126   0.25698   -0.172559           
         C         C         0.08515   0.03314   0.24857   0.064905  
         C         C         0.04568   0.07927   0.24397   -0.180263           
         H         H         0.47308   0.30732   0.21110   0.080891  
         H         H         0.33944   0.02911   0.22430   0.123761  
         H         H         0.18754   0.95984   0.23022   0.109411  
         H         H         0.19312   0.20220   0.27630   0.107786  
         H         H         0.34321   0.26959   0.26770   0.110815  
         H         H         0.08330   0.14418   0.23523   0.097456  
         C         C         0.74962   0.36279   0.24474   -0.102458           
         C         C         0.71887   0.41600   0.23754   0.033805  
         O         O         0.56049   0.16444   0.25047   -0.411945           
         C         C         0.73169   0.22231   0.24825   0.096696  
         N         N         0.80805   0.25212   0.26656   -0.305210           
         C         C         0.83925   0.19690   0.26429   0.208608  
         C         C         0.92439   0.23380   0.27443   -0.146035           
         C         C         0.96300   0.18477   0.26798   -0.120974           
         C         C         0.91855   0.09616   0.25213   0.063407  
         C         C         0.83303   0.05977   0.24335   -0.118970           
         C         C         0.79381   0.10837   0.25062   -0.166149           
         C         C         0.95886   0.04404   0.24877   0.084156  
         C         C         0.91161   0.95893   0.25505   -0.174066           
         H         H         0.50124   0.15591   0.24698   0.298708  
         H         H         0.68810   0.15450   0.23108   0.074011  
         H         H         0.95943   0.30200   0.28483   0.113568  
         H         H         0.02894   0.21658   0.27666   0.101813  
         H         H         0.79611   0.99146   0.23005   0.100424  
         H         H         0.72754   0.07687   0.24406   0.112238  
         H         H         0.84392   0.93084   0.26337   0.099804  
         C         C         0.63377   0.38224   0.23046   -0.115589           
         C         C         0.57969   0.29778   0.23365   -0.091658           
         C         C         0.77519   0.50389   0.23483   0.084928  
         N         N         0.74852   0.55473   0.22994   -0.308594           
         C         C         0.80211   0.64059   0.23573   0.195828  
         C         C         0.77124   0.68564   0.20073   -0.152174           
         C         C         0.81809   0.77186   0.20763   -0.125617           
         C         C         0.89777   0.81811   0.25272   0.050319  
         C         C         0.92757   0.77294   0.29088   -0.125326           
         C         C         0.88165   0.68638   0.28173   -0.170927           
         C         C         0.94879   0.90898   0.25362   0.074872  
         C         C         0.03575   0.94743   0.25087   -0.184911           
         H         H         0.84116   0.52313   0.23625   0.070162  
         H         H         0.71063   0.65006   0.16202   0.119753  
         H         H         0.79348   0.80207   0.16922   0.100653  
         H         H         0.98657   0.80684   0.33562   0.101934  
         H         H         0.90613   0.65570   0.31931   0.104940  
         H         H         0.06500   0.90993   0.25203   0.099733  
         H         H         0.81556   0.38626   0.24819   0.111584  
         H         H         0.61050   0.42287   0.22050   0.111912  
         C         C         0.61465   0.25065   0.75174   0.268336  
         C         C         0.70151   0.28290   0.75127   -0.056349           
         C         C         0.49438   0.27136   0.74113   0.088343  
         N         N         0.44205   0.19432   0.75352   -0.278624           
         C         C         0.35661   0.15842   0.74674   0.191918  
         C         C         0.30372   0.08169   0.79233   -0.154186           
         C         C         0.21790   0.04295   0.79220   -0.127187           
         C         C         0.18124   0.07783   0.74350   0.061231  
         C         C         0.23565   0.15342   0.69278   -0.121143           
         C         C         0.32101   0.19312   0.69494   -0.174916           
         C         C         0.08979   0.03788   0.74600   0.069362  
         C         C         0.04977   0.08545   0.74862   -0.183469           
         H         H         0.47415   0.31438   0.72937   0.081822  
         H         H         0.33021   0.05436   0.83372   0.115084  
         H         H         0.17840   0.98600   0.83667   0.105888  
         H         H         0.21185   0.17980   0.64262   0.099022  
         H         H         0.36077   0.24911   0.64729   0.105720  
         H         H         0.08753   0.15085   0.74215   0.100449  
         C         C         0.75387   0.36652   0.74048   -0.101247           
         C         C         0.72299   0.41990   0.73434   0.032194  
         O         O         0.56310   0.17103   0.76254   -0.412008           
         C         C         0.73373   0.22891   0.76253   0.095088  
         N         N         0.81239   0.25637   0.76386   -0.304309           
         C         C         0.84321   0.20211   0.76647   0.208116  
         C         C         0.92226   0.24257   0.81172   -0.149259           
         C         C         0.96009   0.19423   0.81095   -0.124750           
         C         C         0.92138   0.10272   0.76357   0.061614  
         C         C         0.84205   0.06260   0.71903   -0.120905           
         C         C         0.80351   0.11052   0.72067   -0.167793           
         C         C         0.96239   0.05079   0.75860   0.082870  
         C         C         0.91511   0.96596   0.76671   -0.174330           
         H         H         0.50331   0.16265   0.76209   0.297486  
         H         H         0.68679   0.16488   0.77163   0.074242  
         H         H         0.95261   0.31325   0.84871   0.113372  
         H         H         0.01996   0.22856   0.85239   0.100939  
         H         H         0.81117   0.99180   0.67609   0.102155  
         H         H         0.74381   0.07634   0.67845   0.110107  
         H         H         0.84686   0.93970   0.78241   0.100256  
         C         C         0.63698   0.38759   0.73508   -0.116628           
         C         C         0.58233   0.30383   0.74276   -0.091086           
         C         C         0.78012   0.50723   0.72910   0.089626  
         N         N         0.75325   0.56003   0.73239   -0.317272           
         C         C         0.80723   0.64567   0.73707   0.197347  
         C         C         0.77182   0.69459   0.72812   -0.148273           
         C         C         0.81810   0.78125   0.73803   -0.126085           
         C         C         0.90220   0.82407   0.75857   0.055400  
         C         C         0.93666   0.77516   0.77157   -0.125619           
         C         C         0.89110   0.68826   0.76008   -0.168292           
         C         C         0.95290   0.91492   0.75892   0.070434  
         C         C         0.04068   0.95212   0.74762   -0.185758           
         H         H         0.84670   0.52437   0.72290   0.067030  
         H         H         0.70736   0.66187   0.70948   0.119123  
         H         H         0.78877   0.81501   0.72351   0.104062  
         H         H         -0.00048  0.80639   0.79803   0.104051  
         H         H         0.91967   0.65463   0.77772   0.108576  
         H         H         0.07150   0.91358   0.73909   0.101429  
         H         H         0.82052   0.38995   0.73872   0.112095  
         H         H         0.61385   0.42896   0.72733   0.113590 

