
##########################################################################
#               Crystallographic Information Format file
#               Produced by PyCifRW module
#
#  This is a CIF file.  CIF has been adopted by the International
#  Union of Crystallography as the standard for data archiving and
#  transmission.
#
#  For information on this file format, follow the CIF links at
#  http://www.iucr.org
##########################################################################

data_image0

_cell_length_a                          32.1169
_cell_length_b                          32.1063
_cell_length_c                          8.06042
_cell_angle_alpha                       108.191
_cell_angle_beta                        106.272
_cell_angle_gamma                       118.992
_symmetry_space_group_name_H-M          'P 1'
_space_group_name_Hall                  'P 1'
loop_
  _atom_site_type_symbol
  _atom_site_label
  _atom_site_fract_x
  _atom_site_fract_y
  _atom_site_fract_z
  _atom_site_charge
         C         C         0.55944   0.63879   0.21520   0.104159  
         C         C         0.66671   0.56862   0.19453   0.075740  
         C         C         0.33978   0.90696   0.22386   0.090995  
         C         C         0.41479   0.08589   0.24766   0.085170  
         C         C         0.07978   0.42729   0.26741   0.092371  
         C         C         0.90533   0.33241   0.28492   0.080042  
         N         N         0.55990   0.68150   0.27983   -0.307978           
         N         N         0.63098   0.52399   0.19562   -0.223105           
         N         N         0.30776   0.86367   0.24002   -0.226990           
         N         N         0.45144   0.08993   0.20163   -0.247249           
         N         N         0.12029   0.43231   0.23344   -0.234174           
         N         N         0.90456   0.37380   0.36036   -0.246155           
         C         C         0.64907   0.69161   0.22866   -0.110520           
         C         C         0.65865   0.60776   0.19508   -0.088131           
         C         C         0.28601   0.94265   0.21451   -0.202596           
         C         C         0.37164   0.03529   0.22643   -0.032226           
         C         C         0.02946   0.32937   0.18950   -0.187762           
         C         C         0.95091   0.33642   0.26845   -0.043491           
         C         C         0.69587   0.69862   0.22541   0.137392  
         C         C         0.60967   0.59967   0.19439   0.307601  
         C         C         0.28422   0.98566   0.23072   0.136333  
         C         C         0.37436   0.98906   0.20031   0.336156  
         C         C         0.98448   0.28322   0.16392   0.133560  
         C         C         0.00220   0.38884   0.32182   0.335659  
         C         C         0.69973   0.65661   0.20836   -0.174093           
         C         C         0.60699   0.64463   0.21321   -0.067040           
         C         C         0.32862   0.03209   0.24320   -0.163522           
         C         C         0.33054   0.94395   0.20875   -0.111140           
         C         C         0.94512   0.28756   0.19765   -0.159822           
         C         C         0.03811   0.38095   0.25553   -0.111016           
         H         H         0.27362   0.85740   0.24133   0.262652  
         H         H         0.12265   0.40060   0.20672   0.262166  
         O         O         0.57245   0.55617   0.18367   -0.470995           
         O         O         0.40989   0.98696   0.17552   -0.421355           
         O         O         0.01611   0.43649   0.41892   -0.422958           
         C         C         0.32875   0.70021   0.27492   0.367423  
         C         C         0.62277   0.28550   0.27782   0.377236  
         C         C         0.29308   0.61895   0.27251   0.371372  
         C         C         0.70741   0.33629   0.30579   0.375692  
         C         C         0.37460   0.66375   0.27579   0.377393  
         C         C         0.65502   0.36544   0.27266   0.364805  
         N         N         0.28752   0.65796   0.27216   -0.420873           
         N         N         0.66858   0.29086   0.29759   -0.405691           
         N         N         0.33566   0.61996   0.27494   -0.416977           
         N         N         0.70228   0.37479   0.29406   -0.415389           
         N         N         0.37302   0.70519   0.27784   -0.411676           
         N         N         0.61422   0.32212   0.26619   -0.418398           
         C         C         0.32462   0.74367   0.27080   -0.007978           
         C         C         0.57858   0.23617   0.26487   -0.008310           
         C         C         0.24857   0.57111   0.26568   -0.011625           
         C         C         0.75836   0.34504   0.32469   -0.008736           
         C         C         0.42122   0.66651   0.27161   -0.019003           
         C         C         0.64797   0.40610   0.25196   0.003383  
         C         C         0.42683   0.62608   0.27796   -0.087603           
         C         C         0.68935   0.45047   0.25107   -0.081652           
         C         C         0.36699   0.79001   0.28066   -0.073644           
         C         C         0.52960   0.22812   0.24090   -0.092032           
         C         C         0.20087   0.56520   0.24703   -0.070326           
         C         C         0.76809   0.30762   0.33882   -0.087685           
         C         C         0.47189   0.62967   0.28094   -0.183101           
         C         C         0.68447   0.48959   0.23229   -0.196483           
         C         C         0.36306   0.83079   0.27427   -0.179424           
         C         C         0.48697   0.18070   0.22133   -0.181227           
         C         C         0.15790   0.51960   0.23445   -0.182794           
         C         C         0.81623   0.31635   0.35446   -0.181378           
         C         C         0.51295   0.67391   0.27693   0.222843  
         C         C         0.63752   0.48531   0.21425   0.202663  
         C         C         0.31565   0.82542   0.25603   0.208648  
         C         C         0.49213   0.13971   0.22588   0.217197  
         C         C         0.16233   0.47876   0.24260   0.213606  
         C         C         0.85613   0.36252   0.35453   0.214791  
         C         C         0.50724   0.71440   0.27132   -0.156284           
         C         C         0.59567   0.44085   0.21359   -0.181881           
         C         C         0.27340   0.77963   0.24852   -0.204674           
         C         C         0.54100   0.14768   0.24737   -0.133826           
         C         C         0.20960   0.48389   0.25953   -0.212678           
         C         C         0.84698   0.40085   0.34705   -0.147516           
         C         C         0.46196   0.71054   0.26700   -0.089755           
         C         C         0.60087   0.40161   0.23189   -0.084971           
         C         C         0.27788   0.73928   0.25604   -0.079398           
         C         C         0.58382   0.19546   0.26970   -0.083171           
         C         C         0.25234   0.52978   0.27227   -0.081480           
         C         C         0.79886   0.39197   0.33090   -0.098395           
         H         H         0.39582   0.59298   0.28623   0.104066  
         H         H         0.72519   0.45303   0.26336   0.117926  
         H         H         0.40316   0.79331   0.29242   0.119119  
         H         H         0.52605   0.25982   0.23683   0.104554  
         H         H         0.19775   0.59679   0.23849   0.117106  
         H         H         0.73746   0.27217   0.33926   0.111189  
         H         H         0.47658   0.59920   0.29294   0.113748  
         H         H         0.71683   0.52276   0.22851   0.112485  
         H         H         0.39650   0.86623   0.28252   0.132876  
         H         H         0.44901   0.17454   0.20041   0.100230  
         H         H         0.12006   0.51417   0.20915   0.140356  
         H         H         0.82390   0.28799   0.37110   0.102561  
         H         H         0.53869   0.74786   0.26548   0.119908  
         H         H         0.55947   0.43780   0.19990   0.127308  
         H         H         0.23685   0.77575   0.23542   0.112941  
         H         H         0.54375   0.11523   0.24707   0.131809  
         H         H         0.21339   0.45263   0.26867   0.110808  
         H         H         0.87816   0.43659   0.34927   0.125925  
         H         H         0.45714   0.74124   0.25914   0.109681  
         H         H         0.56892   0.36716   0.23244   0.114595  
         H         H         0.24545   0.70367   0.25028   0.115796  
         H         H         0.62177   0.20208   0.28809   0.112643  
         H         H         0.28961   0.53492   0.28892   0.118442  
         H         H         0.79135   0.42093   0.32130   0.106749  
         H         H         0.72142   0.76214   0.14897   0.137944  
         H         H         0.21007   0.95023   0.24934   0.130118  
         H         H         0.00723   0.23064   0.06885   0.121921  
         H         H         0.76663   0.78704   0.40377   0.124524  
         H         H         0.25619   0.02480   0.38325   0.126600  
         H         H         0.97983   0.22145   0.22947   0.127740  
         H         H         0.73524   0.66078   0.20543   0.101960  
         H         H         0.64460   0.72381   0.24035   0.115917  
         C         C         0.74012   0.75103   0.24494   -0.425179           
         H         H         0.76691   0.74549   0.19803   0.127600  
         H         H         0.32838   0.06731   0.26566   0.098252  
         H         H         0.25355   0.90827   0.21462   0.091666  
         C         C         0.23869   0.98623   0.24426   -0.419327           
         H         H         0.21432   0.98523   0.11395   0.124789  
         H         H         0.90819   0.25008   0.16829   0.103357  
         H         H         0.05845   0.32545   0.15557   0.089773  
         C         C         0.97624   0.22932   0.10472   -0.419531           
         H         H         0.93467   0.19277   0.97077   0.131998  
         H         H         0.70351   0.57492   0.19773   0.089166  
         H         H         0.59706   0.52358   0.19060   0.269962  
         H         H         0.86845   0.28869   0.21722   0.048070  
         H         H         0.41504   0.12182   0.31283   0.048638  
         H         H         0.08012   0.46314   0.31007   0.116192  
         H         H         0.37694   0.91467   0.22603   0.116770  
         H         H         0.52336   0.59589   0.15684   0.075349  
         C         C         0.56511   0.64719   0.71923   0.106499  
         C         C         0.67875   0.58438   0.69897   0.079697  
         C         C         0.35368   0.92086   0.73080   0.108664  
         C         C         0.43157   0.09899   0.73571   0.083240  
         C         C         0.08918   0.43329   0.76545   0.094934  
         C         C         0.91586   0.33886   0.78239   0.076906  
         N         N         0.56530   0.68971   0.78394   -0.311759           
         N         N         0.64516   0.53996   0.70500   -0.221392           
         N         N         0.31985   0.87784   0.74494   -0.236260           
         N         N         0.47374   0.10730   0.72145   -0.270496           
         N         N         0.13183   0.44121   0.74243   -0.233536           
         N         N         0.91750   0.38172   0.86277   -0.241397           
         C         C         0.65328   0.70198   0.72762   -0.111819           
         C         C         0.66806   0.62175   0.69792   -0.092118           
         C         C         0.30518   0.96174   0.73310   -0.180971           
         C         C         0.38953   0.04953   0.72280   -0.033721           
         C         C         0.04052   0.33551   0.69321   -0.192862           
         C         C         0.96105   0.34192   0.76652   -0.043387           
         C         C         0.70075   0.71141   0.72371   0.128177  
         C         C         0.61866   0.61153   0.70058   0.306784  
         C         C         0.30341   0.00416   0.73831   0.131778  
         C         C         0.39148   0.00318   0.70497   0.342857  
         C         C         0.99600   0.28965   0.67122   0.131851  
         C         C         0.01167   0.39401   0.81633   0.334433  
         C         C         0.70690   0.67080   0.70653   -0.171762           
         C         C         0.61314   0.65453   0.71609   -0.069874           
         C         C         0.34652   0.04753   0.73584   -0.154246           
         C         C         0.34758   0.96002   0.72006   -0.106628           
         C         C         0.95613   0.29359   0.70198   -0.162599           
         C         C         0.04803   0.38645   0.75302   -0.110573           
         H         H         0.28799   0.87480   0.75791   0.259632  
         H         H         0.13764   0.41214   0.72941   0.265047  
         O         O         0.58347   0.56790   0.69484   -0.471295           
         O         O         0.42588   -0.00101  0.67845   -0.433617           
         O         O         0.02504   0.44155   0.91017   -0.421493           
         C         C         0.33472   0.71025   0.77274   0.370969  
         C         C         0.64015   0.30317   0.78404   0.372108  
         C         C         0.29932   0.62927   0.77209   0.369687  
         C         C         0.72478   0.35367   0.81219   0.378117  
         C         C         0.38057   0.67375   0.77410   0.375755  
         C         C         0.67300   0.38338   0.78046   0.369253  
         N         N         0.29355   0.66817   0.77119   -0.423315           
         N         N         0.68570   0.30829   0.80235   -0.405934           
         N         N         0.34163   0.63005   0.77273   -0.415717           
         N         N         0.72054   0.39297   0.80342   -0.431852           
         N         N         0.37909   0.71523   0.77626   -0.417788           
         N         N         0.63184   0.33999   0.77257   -0.421418           
         C         C         0.33132   0.75421   0.76921   -0.015076           
         C         C         0.59682   0.25401   0.77281   -0.019578           
         C         C         0.25600   0.58151   0.76869   -0.013769           
         C         C         0.77500   0.36080   0.83151   -0.014026           
         C         C         0.42727   0.67629   0.77264   -0.016337           
         C         C         0.66580   0.42407   0.76092   -0.001397           
         C         C         0.43202   0.63534   0.77859   -0.085634           
         C         C         0.70689   0.46918   0.76210   -0.084544           
         C         C         0.37461   0.80019   0.78063   -0.077287           
         C         C         0.54739   0.24474   0.74933   -0.086627           
         C         C         0.20770   0.57404   0.75060   -0.068181           
         C         C         0.78231   0.32192   0.84567   -0.086292           
         C         C         0.47682   0.63826   0.78215   -0.179944           
         C         C         0.70128   0.50819   0.74555   -0.197083           
         C         C         0.37248   0.84215   0.77732   -0.180419           
         C         C         0.50594   0.19734   0.73337   -0.185641           
         C         C         0.16591   0.52788   0.73972   -0.187400           
         C         C         0.82911   0.32788   0.85873   -0.180503           
         C         C         0.51863   0.68267   0.78120   0.225269  
         C         C         0.65351   0.50239   0.72464   0.198489  
         C         C         0.32579   0.83831   0.75905   0.211407  
         C         C         0.51245   0.15721   0.73999   0.223647  
         C         C         0.17247   0.48842   0.75057   0.210751  
         C         C         0.87031   0.37324   0.85942   0.218764  
         C         C         0.51421   0.72415   0.77934   -0.159610           
         C         C         0.61218   0.45739   0.72370   -0.182673           
         C         C         0.28252   0.79283   0.74985   -0.209551           
         C         C         0.56209   0.16685   0.76355   -0.148362           
         C         C         0.22072   0.49564   0.77019   -0.208416           
         C         C         0.86412   0.41359   0.85561   -0.150639           
         C         C         0.46890   0.72063   0.77232   -0.093284           
         C         C         0.61847   0.41885   0.74254   -0.079181           
         C         C         0.28539   0.75144   0.75585   -0.078625           
         C         C         0.60371   0.21451   0.78188   -0.083338           
         C         C         0.26197   0.54169   0.77933   -0.075945           
         C         C         0.81678   0.40691   0.83854   -0.097945           
         H         H         0.40040   0.60224   0.78512   0.105424  
         H         H         0.74315   0.47253   0.77520   0.118349  
         H         H         0.41019   0.80227   0.79235   0.117813  
         H         H         0.54256   0.27559   0.74338   0.104716  
         H         H         0.20316   0.60482   0.74146   0.116931  
         H         H         0.75059   0.28741   0.84678   0.111263  
         H         H         0.48063   0.60717   0.79239   0.113827  
         H         H         0.73363   0.54233   0.74533   0.110135  
         H         H         0.40683   0.87738   0.78811   0.132653  
         H         H         0.46820   0.19123   0.71594   0.099004  
         H         H         0.12784   0.52163   0.71742   0.140263  
         H         H         0.83480   0.29818   0.87328   0.103886  
         H         H         0.54669   0.75805   0.77840   0.119154  
         H         H         0.57545   0.45329   0.70896   0.128755  
         H         H         0.24646   0.79006   0.73669   0.112554  
         H         H         0.56615   0.13548   0.76836   0.128498  
         H         H         0.22633   0.46581   0.78416   0.113268  
         H         H         0.89670   0.44890   0.86044   0.125382  
         H         H         0.46460   0.75170   0.76541   0.109728  
         H         H         0.58712   0.38412   0.74390   0.115613  
         H         H         0.25222   0.71622   0.74953   0.114848  
         H         H         0.64212   0.22215   0.80156   0.109255  
         H         H         0.29975   0.54802   0.79650   0.118345  
         H         H         0.81086   0.43681   0.82866   0.106160  
         H         H         0.72358   0.77690   0.65747   0.138012  
         H         H         0.23046   0.97109   0.76394   0.129153  
         H         H         0.94684   0.19890   0.48685   0.132397  
         H         H         0.77129   0.80000   0.90480   0.126469  
         H         H         0.27892   0.04559   0.90385   0.125448  
         H         H         0.01943   0.23738   0.58214   0.123598  
         H         H         0.74258   0.67625   0.70047   0.102607  
         H         H         0.64623   0.73236   0.73630   0.114848  
         C         C         0.74349   0.76483   0.74413   -0.421239           
         H         H         0.76917   0.76002   0.68744   0.126583  
         H         H         0.34639   0.08234   0.74828   0.096865  
         H         H         0.27392   0.92999   0.74621   0.090150  
         C         C         0.25980   0.00716   0.76068   -0.418988           
         H         H         0.23600   0.00809   0.63566   0.120822  
         H         H         0.91972   0.25636   0.67598   0.104010  
         H         H         0.06964   0.33181   0.65974   0.093071  
         C         C         0.98857   0.23628   0.61834   -0.421170           
         H         H         0.99338   0.23001   0.74703   0.124748  
         H         H         0.71569   0.59190   0.69911   0.090599  
         H         H         0.61064   0.53833   0.70174   0.268311  
         H         H         0.87789   0.29550   0.71162   0.049858  
         H         H         0.42526   0.13081   0.76562   0.039173  
         H         H         0.08673   0.46730   0.79923   0.115067  
         H         H         0.38915   0.92554   0.72584   0.111827  
         H         H         0.52955   0.60408   0.66184   0.076591 

