
##########################################################################
#               Crystallographic Information Format file
#               Produced by PyCifRW module
#
#  This is a CIF file.  CIF has been adopted by the International
#  Union of Crystallography as the standard for data archiving and
#  transmission.
#
#  For information on this file format, follow the CIF links at
#  http://www.iucr.org
##########################################################################

data_image0

_cell_length_a                          20.8944
_cell_length_b                          20.9961
_cell_length_c                          8.39823
_cell_angle_alpha                       91.2546
_cell_angle_beta                        90.4749
_cell_angle_gamma                       120.557
_symmetry_space_group_name_H-M          'P 1'
_space_group_name_Hall                  'P 1'
loop_
  _atom_site_type_symbol
  _atom_site_label
  _atom_site_fract_x
  _atom_site_fract_y
  _atom_site_fract_z
  _atom_site_charge
         C         C         0.37533   0.62586   0.42134   0.169053  
         C         C         0.37927   0.74498   0.42372   0.168065  
         C         C         0.25881   0.62884   0.41678   0.169986  
         C         C         0.43433   0.65168   0.01364   -0.171666           
         C         C         0.34282   0.78272   0.00034   -0.176537           
         C         C         0.21359   0.56106   0.00599   -0.169088           
         C         C         0.47110   0.61242   0.02611   -0.155906           
         C         C         0.38335   0.85959   0.01275   -0.157262           
         C         C         0.13675   0.52437   0.01759   -0.156780           
         C         C         0.44818   0.54306   0.44778   0.184892  
         C         C         0.46270   0.90206   0.44741   0.186800  
         C         C         0.10160   0.55727   0.43721   0.182224  
         C         C         0.38230   0.51626   0.35608   -0.141763           
         C         C         0.48774   0.86195   0.35734   -0.139682           
         C         C         0.14228   0.62372   0.35611   -0.140892           
         C         C         0.34665   0.55663   0.34265   -0.174320           
         C         C         0.44703   0.78510   0.34582   -0.174706           
         C         C         0.21920   0.65899   0.34614   -0.178588           
         N         N         0.47914   0.49737   0.45305   -0.309464           
         N         N         0.50836   0.97946   0.45026   -0.308207           
         N         N         0.02433   0.52708   0.44359   -0.309631           
         C         C         0.62828   0.37746   0.07047   0.177731  
         C         C         0.61974   0.25588   0.06610   0.179508  
         C         C         0.74225   0.36992   0.07116   0.176463  
         C         C         0.56601   0.35190   0.48438   -0.180617           
         C         C         0.65090   0.21540   0.47643   -0.183114           
         C         C         0.78973   0.43844   0.48323   -0.180584           
         C         C         0.53156   0.39358   0.48052   -0.090291           
         C         C         0.60845   0.13877   0.46820   -0.088855           
         C         C         0.86648   0.47299   0.47576   -0.090835           
         C         C         0.55891   0.46359   0.06474   0.040476  
         C         C         0.53320   0.09916   0.05444   0.040935  
         C         C         0.89890   0.43865   0.06255   0.042628  
         C         C         0.62502   0.48733   0.15352   -0.110951           
         C         C         0.50890   0.14187   0.13663   -0.114988           
         C         C         0.85656   0.37415   0.14884   -0.112477           
         C         C         0.65959   0.44553   0.15515   -0.182074           
         C         C         0.55103   0.21878   0.14195   -0.186298           
         C         C         0.77948   0.33966   0.15133   -0.181269           
         C         C         0.52518   0.50967   0.05980   0.066752  
         C         C         0.48692   0.01869   0.04885   0.065647  
         C         C         0.97932   0.47184   0.05541   0.068306  
         H         H         0.45594   0.70438   0.07729   0.108538  
         H         H         0.28802   0.75274   0.05138   0.114012  
         H         H         0.24502   0.54044   0.06738   0.110073  
         H         H         0.52120   0.63576   0.10064   0.110725  
         H         H         0.35885   0.88790   0.07440   0.108942  
         H         H         0.10956   0.47549   0.08955   0.109721  
         H         H         0.36024   0.46298   0.29398   0.121071  
         H         H         0.53971   0.89282   0.29493   0.120631  
         H         H         0.11157   0.64651   0.29940   0.120920  
         H         H         0.29610   0.53450   0.27029   0.112866  
         H         H         0.46799   0.75537   0.27752   0.111279  
         H         H         0.24941   0.71060   0.28420   0.116306  
         H         H         0.54129   0.29901   0.42002   0.111880  
         H         H         0.70308   0.24386   0.41444   0.111673  
         H         H         0.76039   0.46146   0.42229   0.110583  
         H         H         0.48082   0.37468   0.40994   0.114740  
         H         H         0.62601   0.10661   0.39720   0.116501  
         H         H         0.89769   0.52226   0.40614   0.114316  
         H         H         0.64947   0.53904   0.22320   0.107682  
         H         H         0.45638   0.11423   0.19853   0.106727  
         H         H         0.88454   0.35103   0.21546   0.108166  
         H         H         0.71101   0.46521   0.22299   0.113135  
         H         H         0.53098   0.25065   0.20517   0.114987  
         H         H         0.74746   0.28901   0.21551   0.112136  
         H         H         0.54585   0.55452   0.15092   0.066560  
         H         H         0.43979   0.99579   0.13004   0.062930  
         H         H         0.00445   0.45342   0.14535   0.066024  
         N         N         0.66335   0.33445   0.07156   -0.128964           
         N         N         0.33769   0.66627   0.41218   -0.129350           
         C         C         0.36899   0.62436   0.92025   0.169149  
         C         C         0.37152   0.74290   0.92210   0.172145  
         C         C         0.25181   0.62527   0.91671   0.168416  
         C         C         0.44217   0.65383   0.50998   -0.171505           
         C         C         0.35411   0.78467   0.51454   -0.168649           
         C         C         0.21808   0.56113   0.49317   -0.175153           
         C         C         0.47819   0.61370   0.52198   -0.160971           
         C         C         0.39469   0.86143   0.52589   -0.156594           
         C         C         0.14121   0.52586   0.50259   -0.158170           
         C         C         0.44324   0.54306   0.94724   0.184331  
         C         C         0.45512   0.90030   0.94950   0.183655  
         C         C         0.09479   0.55083   0.94144   0.183925  
         C         C         0.37870   0.51678   0.85096   -0.141113           
         C         C         0.48308   0.86016   0.86974   -0.138183           
         C         C         0.13312   0.61350   0.84739   -0.143447           
         C         C         0.34217   0.55641   0.83732   -0.173316           
         C         C         0.44231   0.78338   0.85578   -0.179477           
         C         C         0.21002   0.64999   0.83460   -0.172260           
         N         N         0.47464   0.49777   0.95374   -0.308976           
         N         N         0.50098   0.97771   0.95520   -0.309049           
         N         N         0.01743   0.51966   0.94922   -0.309672           
         C         C         0.63345   0.37768   0.56984   0.178851  
         C         C         0.62722   0.25736   0.56440   0.178439  
         C         C         0.74866   0.37281   0.56731   0.179767  
         C         C         0.56130   0.35289   0.98389   -0.182476           
         C         C         0.64446   0.21330   0.98415   -0.180713           
         C         C         0.78472   0.43570   0.98854   -0.181904           
         C         C         0.52763   0.39523   0.98043   -0.091587           
         C         C         0.60208   0.13664   0.97831   -0.089259           
         C         C         0.86140   0.46891   0.98284   -0.088412           
         C         C         0.56218   0.46181   0.56533   0.042554  
         C         C         0.54093   0.10098   0.54940   0.040647  
         C         C         0.90537   0.44406   0.55503   0.041017  
         C         C         0.62848   0.48643   0.65381   -0.113176           
         C         C         0.51793   0.14302   0.63827   -0.113965           
         C         C         0.86430   0.37940   0.64160   -0.112298           
         C         C         0.66426   0.44578   0.65415   -0.184163           
         C         C         0.55998   0.21984   0.64543   -0.180367           
         C         C         0.78720   0.34393   0.64736   -0.181026           
         C         C         0.52797   0.50751   0.56186   0.068518  
         C         C         0.49476   0.02066   0.54421   0.064827  
         C         C         0.98588   0.47828   0.54791   0.067461  
         H         H         0.46584   0.70776   0.56967   0.111847  
         H         H         0.30242   0.75485   0.57776   0.108804  
         H         H         0.24728   0.53625   0.54647   0.110450  
         H         H         0.52966   0.63745   0.59206   0.111308  
         H         H         0.37368   0.88957   0.60012   0.110011  
         H         H         0.11216   0.47380   0.56381   0.111192  
         H         H         0.35846   0.46472   0.78493   0.120428  
         H         H         0.53774   0.89120   0.81752   0.120470  
         H         H         0.10080   0.63236   0.78276   0.120977  
         H         H         0.29249   0.53490   0.76232   0.112229  
         H         H         0.46517   0.75395   0.79287   0.115987  
         H         H         0.23820   0.69804   0.76066   0.112070  
         H         H         0.53596   0.30008   0.91914   0.114994  
         H         H         0.69723   0.24132   0.92412   0.112781  
         H         H         0.75653   0.45980   0.92732   0.111276  
         H         H         0.47675   0.37665   0.91066   0.114904  
         H         H         0.62086   0.10420   0.91229   0.115767  
         H         H         0.89388   0.51836   0.91451   0.114036  
         H         H         0.65230   0.53814   0.72342   0.108027  
         H         H         0.46669   0.11472   0.70456   0.106378  
         H         H         0.89357   0.35707   0.70618   0.107989  
         H         H         0.71638   0.46651   0.71979   0.114446  
         H         H         0.54142   0.25131   0.71516   0.111781  
         H         H         0.75633   0.29391   0.71433   0.115377  
         H         H         0.54654   0.55062   0.65665   0.065920  
         H         H         0.44793   0.99810   0.62603   0.064558  
         H         H         0.01122   0.45975   0.63712   0.065110  
         N         N         0.66982   0.33597   0.56988   -0.132055           
         N         N         0.33079   0.66428   0.91090   -0.132311 

