
##########################################################################
#               Crystallographic Information Format file
#               Produced by PyCifRW module
#
#  This is a CIF file.  CIF has been adopted by the International
#  Union of Crystallography as the standard for data archiving and
#  transmission.
#
#  For information on this file format, follow the CIF links at
#  http://www.iucr.org
##########################################################################

data_image0

_cell_length_a                          23.5099
_cell_length_b                          23.423
_cell_length_c                          8.23821
_cell_angle_alpha                       91.6971
_cell_angle_beta                        89.9253
_cell_angle_gamma                       120.042
_symmetry_space_group_name_H-M          'P 1'
_space_group_name_Hall                  'P 1'
loop_
  _atom_site_type_symbol
  _atom_site_label
  _atom_site_fract_x
  _atom_site_fract_y
  _atom_site_fract_z
  _atom_site_charge
         C         C         0.07272   0.03520   0.07197   0.169830  
         C         C         0.96754   0.03454   0.07364   0.169456  
         C         C         0.96776   0.92980   0.07274   0.167386  
         C         C         0.10952   0.09802   0.14800   -0.176884           
         C         C         0.90648   0.00947   0.14978   -0.176928           
         C         C         0.99275   0.89443   0.15155   -0.176513           
         C         C         0.17770   0.13258   0.14172   -0.139421           
         C         C         0.87060   0.04171   0.14160   -0.137936           
         C         C         0.95837   0.82593   0.14759   -0.141226           
         C         C         0.21235   0.10645   0.05847   0.188404  
         C         C         0.89379   0.10045   0.05695   0.183177  
         C         C         0.89770   0.78955   0.06465   0.188440  
         C         C         0.17109   0.04833   0.47845   -0.155322           
         C         C         0.95442   0.13094   0.48023   -0.158191           
         C         C         0.87062   0.83037   0.47138   -0.153234           
         C         C         0.10318   0.01308   0.48909   -0.171248           
         C         C         0.98909   0.09746   0.48878   -0.169850           
         C         C         0.90452   0.89877   0.48322   -0.172148           
         N         N         0.28094   0.14574   0.05712   -0.303011           
         N         N         0.85262   0.12764   0.05311   -0.307127           
         N         N         0.86775   0.72071   0.06682   -0.301123           
         C         C         0.31257   0.13568   0.46130   0.060966  
         C         C         0.86173   0.17877   0.44779   0.069409  
         C         C         0.81573   0.68741   0.44858   0.063039  
         C         C         0.38379   0.17689   0.45815   0.053641  
         C         C         0.82142   0.21002   0.44874   0.051865  
         C         C         0.78557   0.61575   0.44599   0.053200  
         C         C         0.42115   0.15318   0.37822   -0.125630           
         C         C         0.84015   0.26642   0.35764   -0.123612           
         C         C         0.72384   0.57565   0.37011   -0.126262           
         C         C         0.48943   0.19082   0.37596   -0.134840           
         C         C         0.80292   0.29759   0.35913   -0.138639           
         C         C         0.69416   0.50715   0.36862   -0.137394           
         C         C         0.52279   0.25384   0.45238   0.064959  
         C         C         0.74451   0.27224   0.44782   0.063578  
         C         C         0.72551   0.47619   0.44036   0.066040  
         C         C         0.48509   0.27743   0.53211   -0.133622           
         C         C         0.72554   0.21522   0.53761   -0.137127           
         C         C         0.78752   0.51670   0.51544   -0.132371           
         C         C         0.42054   0.23453   0.04287   -0.102202           
         C         C         0.76262   0.17751   0.03529   -0.100982           
         C         C         0.81684   0.58010   0.05727   -0.103583           
         C         C         0.59516   0.29460   0.44875   0.075066  
         C         C         0.70361   0.30387   0.44594   0.077582  
         C         C         0.69437   0.40351   0.44015   0.073651  
         C         C         0.73259   0.37274   0.44033   -0.180143           
         C         C         0.62570   0.36358   0.44334   -0.183017           
         C         C         0.63482   0.26551   0.45070   -0.179948           
         H         H         0.08421   0.11957   0.21288   0.112925  
         H         H         0.88705   0.96400   0.21476   0.110303  
         H         H         0.03952   0.92114   0.21607   0.111827  
         H         H         0.20590   0.18075   0.20271   0.121987  
         H         H         0.82375   0.02227   0.20256   0.121163  
         H         H         0.97753   0.79882   0.21038   0.121244  
         H         H         0.19493   0.02693   0.40626   0.109582  
         H         H         0.97495   0.17585   0.41186   0.110975  
         H         H         0.82516   0.80558   0.40027   0.110425  
         H         H         0.07559   0.96498   0.42822   0.109760  
         H         H         0.03592   0.11652   0.42844   0.110966  
         H         H         0.88482   0.92601   0.42381   0.110579  
         H         H         0.29197   0.09024   0.38478   0.065063  
         H         H         0.89850   0.19382   0.35147   0.065470  
         H         H         0.79321   0.70690   0.36634   0.066204  
         H         H         0.39607   0.10507   0.31545   0.104487  
         H         H         0.88374   0.28519   0.28302   0.102328  
         H         H         0.69950   0.59857   0.30980   0.104915  
         H         H         0.51716   0.17234   0.30911   0.108041  
         H         H         0.81764   0.34023   0.28471   0.107931  
         H         H         0.64703   0.47718   0.30652   0.109602  
         H         H         0.51427   0.31617   0.11786   0.105641  
         H         H         0.67716   0.18448   0.09127   0.107240  
         H         H         0.80462   0.48778   0.13308   0.104088  
         H         H         0.39206   0.24908   0.12009   0.111912  
         H         H         0.74646   0.13184   0.09832   0.113588  
         H         H         0.85940   0.61045   0.13533   0.110960  
         H         H         0.78589   0.40271   0.43721   0.104094  
         H         H         0.59522   0.38642   0.44230   0.102505  
         H         H         0.61185   0.21217   0.45730   0.104582  
         N         N         0.00289   0.00004   0.07611   -0.121712           
         C         C         0.06904   0.03890   0.57583   0.171181  
         C         C         0.96438   0.03877   0.57417   0.167227  
         C         C         0.96425   0.93377   0.57101   0.169051  
         C         C         0.10595   0.10117   0.65418   -0.178078           
         C         C         0.90403   0.01519   0.65286   -0.171453           
         C         C         0.98831   0.89738   0.64866   -0.174576           
         C         C         0.17403   0.13640   0.64350   -0.137593           
         C         C         0.86921   0.04849   0.64330   -0.141052           
         C         C         0.95432   0.82885   0.63668   -0.139784           
         C         C         0.20843   0.11138   0.55452   0.185512  
         C         C         0.89294   0.10655   0.55541   0.187207  
         C         C         0.89510   0.79354   0.54683   0.186570  
         C         C         0.17540   0.04256   0.98683   -0.159471           
         C         C         0.95586   0.12630   0.98397   -0.155795           
         C         C         0.87197   0.82513   0.98894   -0.159461           
         C         C         0.10721   0.00801   0.99285   -0.174334           
         C         C         0.99175   0.09414   0.99226   -0.171379           
         C         C         0.90670   0.89366   0.99132   -0.167271           
         N         N         0.27685   0.15193   0.54942   -0.307125           
         N         N         0.85337   0.13557   0.55355   -0.304647           
         N         N         0.86577   0.72463   0.54258   -0.309367           
         C         C         0.31511   0.13644   0.94705   0.070252  
         C         C         0.86674   0.17817   0.96627   0.060668  
         C         C         0.82444   0.68360   0.95741   0.068397  
         C         C         0.38668   0.17611   0.94640   0.049728  
         C         C         0.82476   0.20728   0.96223   0.051381  
         C         C         0.79261   0.61184   0.95955   0.048801  
         C         C         0.42327   0.15617   0.84888   -0.123898           
         C         C         0.84693   0.26750   0.88533   -0.125137           
         C         C         0.73670   0.57288   0.86101   -0.122693           
         C         C         0.49169   0.19277   0.85003   -0.137307           
         C         C         0.80866   0.29746   0.88256   -0.136134           
         C         C         0.70525   0.50426   0.86158   -0.138650           
         C         C         0.52547   0.25145   0.94491   0.063702  
         C         C         0.74643   0.26777   0.95447   0.064843  
         C         C         0.72976   0.47251   0.95754   0.063896  
         C         C         0.48860   0.27179   0.04048   -0.134199           
         C         C         0.72417   0.20706   0.03016   -0.132777           
         C         C         0.78626   0.51176   0.05473   -0.134651           
         C         C         0.41709   0.23988   0.53560   -0.099715           
         C         C         0.76353   0.18512   0.53997   -0.103468           
         C         C         0.81683   0.58494   0.51928   -0.101529           
         C         C         0.59790   0.29147   0.94579   0.078615  
         C         C         0.70579   0.29959   0.95194   0.074807  
         C         C         0.69762   0.39979   0.95540   0.079287  
         C         C         0.73531   0.36863   0.95818   -0.183792           
         C         C         0.62897   0.36059   0.94997   -0.183090           
         C         C         0.63691   0.26166   0.94483   -0.183837           
         H         H         0.08080   0.12218   0.72188   0.112156  
         H         H         0.88492   0.97068   0.72215   0.112563  
         H         H         0.03374   0.92343   0.71912   0.111138  
         H         H         0.20239   0.18461   0.70410   0.120383  
         H         H         0.82299   0.03094   0.70614   0.121921  
         H         H         0.97253   0.80072   0.69888   0.120311  
         H         H         0.20011   0.01942   0.92575   0.110300  
         H         H         0.97589   0.17117   0.91554   0.110267  
         H         H         0.82469   0.79899   0.92576   0.112049  
         H         H         0.08002   0.95876   0.93771   0.112232  
         H         H         0.03888   0.11471   0.93302   0.109456  
         H         H         0.88599   0.91971   0.93041   0.111060  
         H         H         0.29248   0.09917   0.84761   0.065088  
         H         H         0.91090   0.20229   0.89136   0.065614  
         H         H         0.81032   0.70372   0.85590   0.066294  
         H         H         0.39774   0.11192   0.77094   0.102274  
         H         H         0.89428   0.29026   0.82555   0.104477  
         H         H         0.71856   0.59685   0.78179   0.103036  
         H         H         0.51927   0.17733   0.77208   0.106956  
         H         H         0.82606   0.34324   0.81918   0.109907  
         H         H         0.66297   0.47489   0.78188   0.108773  
         H         H         0.51011   0.32507   0.59679   0.106900  
         H         H         0.68157   0.19597   0.61089   0.107981  
         H         H         0.81184   0.49396   0.57625   0.108442  
         H         H         0.38828   0.25763   0.60021   0.112572  
         H         H         0.74988   0.14222   0.61264   0.112168  
         H         H         0.86393   0.61606   0.58058   0.112991  
         H         H         0.78856   0.39891   0.96485   0.105179  
         H         H         0.59928   0.38428   0.94860   0.106547  
         H         H         0.61327   0.20810   0.94044   0.105141  
         N         N         -0.00067  0.00386   0.58004   -0.121867 

