
##########################################################################
#               Crystallographic Information Format file
#               Produced by PyCifRW module
#
#  This is a CIF file.  CIF has been adopted by the International
#  Union of Crystallography as the standard for data archiving and
#  transmission.
#
#  For information on this file format, follow the CIF links at
#  http://www.iucr.org
##########################################################################

data_image0

_cell_length_a                          26.0962
_cell_length_b                          26.2396
_cell_length_c                          8.12484
_cell_angle_alpha                       92.76
_cell_angle_beta                        116.181
_cell_angle_gamma                       119.938
_symmetry_space_group_name_H-M          'P 1'
_space_group_name_Hall                  'P 1'
loop_
  _atom_site_type_symbol
  _atom_site_label
  _atom_site_fract_x
  _atom_site_fract_y
  _atom_site_fract_z
  _atom_site_charge
         C         C         0.35031   0.62436   0.00553   -0.286561           
         C         C         0.37670   0.72883   0.00339   -0.303527           
         C         C         0.27387   0.65228   0.01502   -0.303710           
         C         C         0.36552   0.58259   0.99185   0.340157  
         C         C         0.41377   0.78491   0.98657   0.334769  
         C         C         0.21741   0.63553   0.02576   0.326252  
         N         N         0.37813   0.54633   0.96739   -0.140068           
         N         N         0.44328   0.83306   0.96397   -0.134146           
         N         N         0.16843   0.61896   0.03798   -0.129142           
         C         C         0.41394   0.52017   0.99049   0.220076  
         C         C         0.47225   0.89359   0.96879   0.227564  
         C         C         0.10746   0.58658   0.03500   0.230302  
         C         C         0.41917   0.43085   0.98255   -0.114241           
         C         C         0.56205   0.99009   0.97771   -0.116008           
         C         C         0.00451   0.57441   0.99574   -0.117587           
         C         C         0.48656   0.46667   0.01265   0.050969  
         C         C         0.52937   0.01924   0.98303   0.045702  
         C         C         0.97981   0.51520   0.01742   0.053223  
         C         C         0.51697   0.53069   0.03621   -0.113618           
         C         C         0.46681   0.98262   0.98064   -0.111352           
         C         C         0.02243   0.49381   0.05276   -0.110960           
         C         C         0.48195   0.55767   0.02573   -0.173265           
         C         C         0.43800   0.92097   0.97299   -0.162670           
         C         C         0.08535   0.52833   0.06199   -0.171972           
         C         C         0.52272   0.43813   0.01015   0.061027  
         C         C         0.55783   0.08439   0.98628   0.064427  
         C         C         0.91258   0.47695   0.00526   0.073587  
         C         C         0.50344   0.38017   0.03820   -0.137127           
         C         C         0.61856   0.12087   0.98032   -0.138809           
         C         C         0.88029   0.50365   0.03251   -0.141016           
         C         C         0.53736   0.35335   0.03305   -0.099418           
         C         C         0.64525   0.18223   0.98441   -0.092148           
         C         C         0.81728   0.46754   0.02277   -0.090680           
         C         C         0.59260   0.38386   0.00198   -0.001267           
         C         C         0.61180   0.20983   0.99320   -0.002224           
         C         C         0.78432   0.40297   0.98837   -0.003167           
         C         C         0.61203   0.44147   0.97285   -0.091096           
         C         C         0.55139   0.17418   -0.00034  -0.096506           
         C         C         0.81548   0.37567   0.95873   -0.090449           
         C         C         0.57735   0.46766   0.97548   -0.139082           
         C         C         0.52531   0.11310   -0.00322  -0.135045           
         C         C         0.87787   0.41181   0.96550   -0.134564           
         C         C         0.62942   0.35625   -0.00257  0.377104  
         C         C         0.63854   0.27423   0.99229   0.376204  
         C         C         0.71939   0.36505   0.98770   0.372387  
         C         C         0.39808   0.68652   0.00638   0.394927  
         C         C         0.31529   0.71461   0.00783   0.383525  
         C         C         0.28734   0.60425   0.00859   0.389574  
         N         N         0.60304   0.29721   -0.00115  -0.419874           
         N         N         0.69647   0.30597   0.98474   -0.415425           
         N         N         0.68751   0.39211   0.99276   -0.413076           
         O         O         0.45110   0.70130   0.00455   -0.471190           
         O         O         0.29989   0.75262   0.00605   -0.472374           
         O         O         0.24781   0.55060   0.00333   -0.477883           
         C         C         0.38270   0.45657   0.97029   -0.173956           
         C         C         0.53444   0.92830   0.97025   -0.186058           
         C         C         0.06748   0.61028   0.00506   -0.181036           
         H         H         0.39378   0.38130   0.96305   0.111498  
         H         H         0.60994   0.01574   0.97707   0.108357  
         H         H         0.97306   0.59244   0.96694   0.108015  
         H         H         0.56933   0.56030   0.06276   0.113484  
         H         H         0.43945   0.00253   0.98545   0.110829  
         H         H         0.00691   0.44958   0.07803   0.112547  
         H         H         0.50527   0.60688   0.04137   0.142379  
         H         H         0.38988   0.89334   0.97192   0.142705  
         H         H         0.11835   0.51187   0.09105   0.148827  
         H         H         0.46277   0.35659   0.07015   0.099917  
         H         H         0.64525   0.10092   0.96988   0.104475  
         H         H         0.90583   0.55383   0.06635   0.100196  
         H         H         0.52245   0.30894   0.05664   0.112049  
         H         H         0.69184   0.20966   0.97837   0.110881  
         H         H         0.79294   0.48847   0.04568   0.110535  
         H         H         0.65356   0.46427   0.94382   0.106540  
         H         H         0.52584   0.19561   0.00883   0.111499  
         H         H         0.78915   0.32552   0.92845   0.110898  
         H         H         0.59154   0.51079   0.94353   0.103992  
         H         H         0.47938   0.08779   0.00637   0.102231  
         H         H         0.89926   0.38885   0.93476   0.106808  
         H         H         0.33032   0.42811   0.94428   0.134593  
         H         H         0.56003   0.90647   0.96438   0.135968  
         H         H         0.08581   0.65560   0.98603   0.135043  
         C         C         0.35887   0.62700   0.51699   -0.281564           
         C         C         0.38163   0.73003   0.50743   -0.302916           
         C         C         0.27747   0.65061   0.50862   -0.303454           
         C         C         0.38015   0.58902   0.53081   0.336955  
         C         C         0.41727   0.78613   0.48893   0.328413  
         C         C         0.22139   0.63294   0.52229   0.325194  
         N         N         0.40346   0.55906   0.56326   -0.145903           
         N         N         0.44439   0.83343   0.45926   -0.133813           
         N         N         0.17401   0.61586   0.54282   -0.127608           
         C         C         0.42728   0.52612   0.52706   0.221228  
         C         C         0.47436   0.89454   0.46926   0.226645  
         C         C         0.11258   0.58369   0.53761   0.222640  
         C         C         0.43628   0.43897   0.53788   -0.118002           
         C         C         0.56123   0.98905   0.46212   -0.118743           
         C         C         0.00984   0.57294   0.49453   -0.120579           
         C         C         0.48945   0.46655   0.49719   0.041788  
         C         C         0.53212   0.02014   0.48355   0.046409  
         C         C         0.98486   0.51410   0.51861   0.052833  
         C         C         0.50876   0.52413   0.46577   -0.116182           
         C         C         0.47316   0.98573   0.49901   -0.113514           
         C         C         0.02710   0.49217   0.55778   -0.113472           
         C         C         0.47867   0.55394   0.48026   -0.176593           
         C         C         0.44401   0.92401   0.49118   -0.163956           
         C         C         0.09025   0.52593   0.56808   -0.168161           
         C         C         0.52576   0.43805   0.49572   0.068456  
         C         C         0.56092   0.08520   0.48608   0.066557  
         C         C         0.91740   0.47639   0.50484   0.073807  
         C         C         0.49719   0.37461   0.47809   -0.136749           
         C         C         0.62132   0.12088   0.47785   -0.139500           
         C         C         0.88541   0.50346   0.53161   -0.137265           
         C         C         0.53325   0.34896   0.48462   -0.095433           
         C         C         0.64846   0.18220   0.48100   -0.091414           
         C         C         0.82255   0.46759   0.52258   -0.090583           
         C         C         0.59905   0.38564   0.50653   -0.000070           
         C         C         0.61590   0.21055   0.49189   -0.001956           
         C         C         0.78949   0.40306   0.48883   -0.001624           
         C         C         0.62822   0.44889   0.52514   -0.088157           
         C         C         0.55611   0.17583   0.50160   -0.098390           
         C         C         0.82000   0.37524   0.45762   -0.092712           
         C         C         0.59244   0.47452   0.52109   -0.133387           
         C         C         0.52935   0.11470   0.49874   -0.135736           
         C         C         0.88239   0.41121   0.46442   -0.134973           
         C         C         0.63580   0.35799   0.50223   0.370986  
         C         C         0.64305   0.27496   0.49152   0.373251  
         C         C         0.72497   0.36582   0.49033   0.374286  
         C         C         0.40589   0.68966   0.51872   0.397836  
         C         C         0.31838   0.71353   0.50476   0.384316  
         C         C         0.29272   0.60379   0.50488   0.391024  
         N         N         0.60802   0.29840   0.49852   -0.416827           
         N         N         0.70118   0.30645   0.48483   -0.414777           
         N         N         0.69436   0.39380   0.49981   -0.414140           
         O         O         0.46046   0.70619   0.52383   -0.470250           
         O         O         0.30105   0.75021   0.49986   -0.474200           
         O         O         0.25367   0.54963   0.49717   -0.476544           
         C         C         0.40557   0.46804   0.55390   -0.171279           
         C         C         0.53325   0.92727   0.45450   -0.186583           
         C         C         0.07293   0.60788   0.50423   -0.176429           
         H         H         0.42074   0.39529   0.56724   0.108800  
         H         H         0.60615   0.01298   0.44724   0.105932  
         H         H         0.97841   0.59109   0.46330   0.109786  
         H         H         0.54757   0.54593   0.42643   0.101236  
         H         H         0.44941   0.00757   0.51997   0.109525  
         H         H         0.01100   0.44829   0.58577   0.112665  
         H         H         0.49474   0.59877   0.45856   0.138434  
         H         H         0.39855   0.89784   0.50315   0.139438  
         H         H         0.12325   0.50936   0.60104   0.148584  
         H         H         0.44593   0.34472   0.45844   0.107069  
         H         H         0.64761   0.10045   0.46716   0.105075  
         H         H         0.91103   0.55363   0.56455   0.100288  
         H         H         0.51101   0.30004   0.47082   0.112103  
         H         H         0.69470   0.20880   0.47278   0.109581  
         H         H         0.79856   0.48881   0.54615   0.110568  
         H         H         0.67914   0.47698   0.54186   0.110471  
         H         H         0.53169   0.19818   0.51348   0.111977  
         H         H         0.79354   0.32505   0.42642   0.111773  
         H         H         0.61704   0.52398   0.54043   0.106186  
         H         H         0.48358   0.09017   0.50941   0.104849  
         H         H         0.90361   0.38812   0.43331   0.105926  
         H         H         0.36670   0.44730   0.59331   0.122387  
         H         H         0.55577   0.90382   0.43501   0.137229  
         H         H         0.09178   0.65282   0.48264   0.137190 

