
##########################################################################
#               Crystallographic Information Format file
#               Produced by PyCifRW module
#
#  This is a CIF file.  CIF has been adopted by the International
#  Union of Crystallography as the standard for data archiving and
#  transmission.
#
#  For information on this file format, follow the CIF links at
#  http://www.iucr.org
##########################################################################

data_image0

_cell_length_a                          37.3681
_cell_length_b                          37.2566
_cell_length_c                          9.13531
_cell_angle_alpha                       117.916
_cell_angle_beta                        56.628
_cell_angle_gamma                       119.39
_symmetry_space_group_name_H-M          'P 1'
_space_group_name_Hall                  'P 1'
loop_
  _atom_site_type_symbol
  _atom_site_label
  _atom_site_fract_x
  _atom_site_fract_y
  _atom_site_fract_z
  _atom_site_charge
         O         O         0.41254   0.71804   0.00700   -0.484592           
         O         O         0.28076   0.69366   0.96461   -0.478296           
         O         O         0.29756   0.58309   0.02321   -0.481275           
         O         O         0.58202   0.27962   -0.00172  -0.484715           
         O         O         0.71229   0.30270   0.04758   -0.479794           
         O         O         0.69631   0.41513   -0.00084  -0.481777           
         C         C         0.37415   0.69353   0.00357   0.351462  
         C         C         0.30390   0.68001   0.97748   0.358974  
         C         C         0.31269   0.62103   0.01236   0.357652  
         C         C         0.62002   0.30404   0.00508   0.352281  
         C         C         0.68944   0.31681   0.03530   0.358403  
         C         C         0.68102   0.37676   0.00588   0.359725  
         C         C         0.35548   0.65043   0.02260   -0.246540           
         C         C         0.34793   0.70759   0.98066   -0.249600           
         C         C         0.28768   0.63655   0.98792   -0.251107           
         C         C         0.63875   0.34761   0.99051   -0.252095           
         C         C         0.64587   0.28933   0.02726   -0.249922           
         C         C         0.70558   0.36073   0.03027   -0.250954           
         H         H         0.41341   0.66125   0.04866   0.100803  
         H         H         0.34329   0.75809   0.94726   0.104316  
         H         H         0.23575   0.57596   0.98627   0.102508  
         H         H         0.58202   0.33770   0.95812   0.101556  
         H         H         0.65055   0.23842   0.05698   0.105005  
         H         H         0.75710   0.42150   0.03827   0.102236  
         C         C         0.38123   0.63814   0.04608   0.116947  
         C         C         0.36401   0.74850   0.96282   0.127967  
         C         C         0.24693   0.60823   0.97750   0.124826  
         C         C         0.61392   0.36058   0.96466   0.119634  
         C         C         0.62993   0.24802   0.04088   0.123221  
         C         C         0.74601   0.38895   0.04368   0.127460  
         N         N         0.36857   0.59942   0.06278   -0.229886           
         N         N         0.40329   0.77666   0.96987   -0.230297           
         N         N         0.22023   0.61952   0.96316   -0.240799           
         N         N         0.62743   0.39975   0.95035   -0.229922           
         N         N         0.59108   0.21952   0.03016   -0.227443           
         N         N         0.77263   0.37706   0.05568   -0.247217           
         H         H         0.33763   0.58004   0.05360   0.274206  
         H         H         0.41889   0.76350   0.99110   0.273054  
         H         H         0.23427   0.65192   0.96284   0.273737  
         H         H         0.65789   0.41863   0.96466   0.271959  
         H         H         0.57544   0.23261   0.00928   0.274074  
         H         H         0.75850   0.34444   0.05273   0.273637  
         C         C         0.39402   0.58364   0.07297   0.214773  
         C         C         0.42223   0.81865   0.95700   0.214081  
         C         C         0.17804   0.59317   0.95957   0.212146  
         C         C         0.60374   0.41691   0.93692   0.213781  
         C         C         0.57255   0.17728   0.04069   0.212674  
         C         C         0.81535   0.40225   0.05503   0.213773  
         H         H         0.34636   0.51996   0.04902   0.125408  
         H         H         0.46217   0.83772   0.09983   0.110062  
         H         H         0.15242   0.64626   0.08753   0.125453  
         H         H         0.65160   0.48015   0.97336   0.125843  
         H         H         0.53259   0.15782   0.89744   0.110636  
         H         H         0.83732   0.34698   0.93220   0.126590  
         C         C         0.37841   0.53991   0.05966   -0.177318           
         C         C         0.45337   0.84799   0.03345   -0.185892           
         C         C         0.14472   0.61171   0.03194   -0.181327           
         C         C         0.62023   0.46107   0.95617   -0.175842           
         C         C         0.54169   0.14767   0.96310   -0.186598           
         C         C         0.84702   0.38173   0.98209   -0.181199           
         C         C         0.43465   0.60949   0.09299   -0.180848           
         C         C         0.41102   0.83248   0.87291   -0.189868           
         C         C         0.16725   0.54856   0.89141   -0.183308           
         C         C         0.56418   0.39211   0.90794   -0.182528           
         C         C         0.58390   0.16348   0.12437   -0.188420           
         C         C         0.82836   0.44709   0.11879   -0.183226           
         H         H         0.44616   0.64389   0.11492   0.123377  
         H         H         0.38864   0.80970   0.80548   0.113635  
         H         H         0.19285   0.53356   0.83002   0.123909  
         H         H         0.55222   0.35747   0.88059   0.119914  
         H         H         0.60585   0.18635   0.19374   0.111729  
         H         H         0.80379   0.46344   0.18230   0.129002  
         H         H         0.49152   0.61202   0.10528   0.090005  
         H         H         0.42068   0.88424   0.80128   0.093067  
         H         H         0.11791   0.48924   0.84258   0.089360  
         H         H         0.50987   0.39226   0.88677   0.089670  
         H         H         0.57501   0.11182   0.19422   0.092378  
         H         H         0.88019   0.50517   0.16542   0.100756  
         C         C         0.46048   0.59127   0.08640   -0.108172           
         C         C         0.42928   0.87516   0.87191   -0.122324           
         C         C         0.12417   0.52336   0.89821   -0.115348           
         C         C         0.54014   0.41185   0.91216   -0.113993           
         C         C         0.56627   0.12068   0.12333   -0.124018           
         C         C         0.87223   0.47067   0.10615   -0.111271           
         C         C         0.40463   0.52206   0.05229   -0.122643           
         C         C         0.47088   0.89055   0.03341   -0.120639           
         C         C         0.10163   0.58605   0.04031   -0.115326           
         C         C         0.59566   0.48040   0.96132   -0.122488           
         C         C         0.52472   0.10499   0.96147   -0.120085           
         C         C         0.89095   0.40567   0.96523   -0.119092           
         H         H         0.39275   0.48777   0.03440   0.104100  
         H         H         0.49271   0.91303   0.10365   0.099328  
         H         H         0.07612   0.60142   0.10577   0.107630  
         H         H         0.60808   0.51492   0.98352   0.105089  
         H         H         0.50312   0.08243   0.89029   0.101274  
         H         H         0.91509   0.38873   0.89944   0.103803  
         C         C         0.44707   0.54686   0.05853   0.057912  
         C         C         0.45912   0.90563   0.95475   0.048597  
         C         C         0.08983   0.54095   0.97265   0.060017  
         C         C         0.55406   0.45656   0.94708   0.058208  
         C         C         0.53670   0.08993   0.03946   0.050841  
         C         C         0.90518   0.45084   0.02601   0.059315  
         C         C         0.47578   0.52576   0.03175   0.024466  
         C         C         0.47768   0.95196   0.96834   0.022850  
         C         C         0.04389   0.51537   0.97765   0.020121  
         C         C         0.52591   0.47837   0.97483   0.022385  
         C         C         0.51828   0.04353   0.02561   0.021750  
         C         C         0.95205   0.47483   0.00998   0.017220  
         H         H         0.41884   0.48191   0.18434   0.101162  
         H         H         0.53817   0.95650   0.96013   0.109429  
         H         H         0.03690   0.56883   0.97473   0.108690  
         H         H         0.58303   0.52275   0.82530   0.101290  
         H         H         0.45764   0.03886   0.03426   0.108775  
         H         H         0.95987   0.42048   0.00230   0.105868  
         C         C         0.45508   0.49058   0.10204   -0.189716           
         C         C         0.51986   0.97469   0.97815   -0.188669           
         C         C         0.01966   0.53618   0.98613   -0.182503           
         C         C         0.54670   0.51375   0.90598   -0.189211           
         C         C         0.47610   0.02075   0.01578   -0.187571           
         C         C         0.97665   0.45350   0.99578   -0.188020           
         C         C         0.52323   0.53727   0.92941   0.081429  
         C         C         0.45544   0.97645   0.98556   0.082736  
         C         C         0.02201   0.47087   0.96734   0.084663  
         C         C         0.47842   0.46681   0.07737   0.084199  
         C         C         0.54044   0.01902   0.00911   0.082596  
         C         C         0.97587   0.51736   0.99541   0.076295  
         C         C         0.55023   0.57318   0.84007   -0.231410           
         C         C         0.41133   0.95905   0.97031   -0.232634           
         C         C         0.04425   0.43825   0.90087   -0.237600           
         C         C         0.45126   0.43037   0.16421   -0.230687           
         C         C         0.58444   0.03646   0.02540   -0.231724           
         C         C         0.95931   0.54284   0.97043   -0.229569           
         H         H         0.57716   0.56438   0.70707   0.101169  
         H         H         0.40489   0.98522   0.97373   0.106899  
         H         H         0.02074   0.40631   0.86863   0.098608  
         H         H         0.47232   0.42149   0.18180   0.113699  
         H         H         0.58317   0.06153   0.15318   0.102165  
         H         H         0.98773   0.55946   0.86748   0.110458  
         H         H         0.42093   0.43683   0.80306   0.101478  
         H         H         0.57998   0.02528   0.63237   0.110239  
         H         H         0.95509   0.58084   0.74196   0.102098  
         H         H         0.52450   0.58064   0.33319   0.114166  
         H         H         0.41028   0.92569   0.37107   0.111135  
         H         H         0.01723   0.41459   0.47018   0.112110  
         S         S         0.57639   0.62009   0.98630   -0.038113           
         S         S         0.36247   0.93453   0.15113   -0.030214           
         S         S         0.06161   0.43809   0.05368   -0.034144           
         S         S         0.42483   0.38445   0.01574   -0.043008           
         S         S         0.63332   0.05860   0.83781   -0.033621           
         S         S         0.93981   0.58517   0.17668   -0.036301           
         C         C         0.60522   0.65989   0.86057   -0.140178           
         C         C         0.31943   0.91825   0.07397   -0.137769           
         C         C         0.09409   0.40100   0.88504   -0.146745           
         C         C         0.40420   0.33983   0.10509   -0.142581           
         C         C         0.67522   0.08491   0.93196   -0.138109           
         C         C         0.95937   0.62886   0.08227   -0.140127           
         H         H         0.62553   0.64596   0.71837   0.092914  
         H         H         0.31564   0.94703   0.08570   0.092805  
         H         H         0.09265   0.38512   0.96404   0.087841  
         H         H         0.38525   0.34951   0.25329   0.094105  
         H         H         0.66508   0.11069   0.05483   0.093424  
         H         H         0.97684   0.65753   0.16180   0.099527  
         H         H         0.37281   0.31403   0.56997   0.103795  
         H         H         0.70686   0.05508   0.24413   0.107854  
         H         H         0.93608   0.63325   0.53341   0.098128  
         H         H         0.61185   0.65230   0.26177   0.091395  
         H         H         0.32321   0.95101   0.52855   0.082856  
         H         H         0.11805   0.38277   0.14612   0.108033  
         C         C         0.63467   0.70022   0.94923   -0.365192           
         C         C         0.27486   0.89021   0.18692   -0.365586           
         C         C         0.14324   0.42206   0.76800   -0.374304           
         C         C         0.44078   0.32285   0.05270   -0.378469           
         C         C         0.72162   0.10255   0.78882   -0.366496           
         C         C         0.92164   0.63644   0.08954   -0.379905           
         H         H         0.66064   0.69336   0.94539   0.120781  
         H         H         0.26301   0.90712   0.33269   0.122026  
         H         H         0.16096   0.44676   0.85433   0.130743  
         H         H         0.46483   0.34714   0.11246   0.113091  
         H         H         0.72170   0.12629   0.74947   0.124610  
         H         H         0.89690   0.64466   0.23040   0.126378  
         H         H         0.45210   0.30908   0.41324   0.126892  
         H         H         0.69018   0.12495   0.37369   0.122708  
         H         H         0.86490   0.57056   0.56032   0.120667  
         H         H         0.53266   0.65548   0.40082   0.115711  
         H         H         0.34072   0.88153   0.40094   0.125647  
         H         H         0.10960   0.39352   0.45758   0.122139  
         H         H         0.65182   0.72492   0.87766   0.124698  
         H         H         0.24841   0.88092   0.14437   0.123298  
         H         H         0.16118   0.39824   0.67534   0.121411  
         H         H         0.42565   0.29490   0.10391   0.122726  
         H         H         0.74753   0.11821   0.84169   0.124887  
         H         H         0.93542   0.66302   0.03191   0.121678  
         O         O         0.41790   0.71813   0.47514   -0.482417           
         O         O         0.28409   0.69639   0.45534   -0.478217           
         O         O         0.29778   0.58703   0.53325   -0.484391           
         O         O         0.58108   0.28365   0.52949   -0.481639           
         O         O         0.71515   0.30852   0.55551   -0.476144           
         O         O         0.69917   0.41610   0.47448   -0.487127           
         C         C         0.37802   0.69501   0.48720   0.351306  
         C         C         0.30641   0.68293   0.47314   0.359243  
         C         C         0.31399   0.62461   0.51618   0.357764  
         C         C         0.62084   0.30735   0.51802   0.351602  
         C         C         0.69253   0.32117   0.53534   0.358558  
         C         C         0.68367   0.37861   0.49153   0.359673  
         C         C         0.35800   0.65281   0.51670   -0.249983           
         C         C         0.35128   0.70986   0.47046   -0.244278           
         C         C         0.28895   0.64032   0.49344   -0.253290           
         C         C         0.63992   0.34959   0.49007   -0.252090           
         C         C         0.64828   0.29314   0.53373   -0.244058           
         C         C         0.70922   0.36380   0.51591   -0.250696           
         H         H         0.41661   0.66154   0.53371   0.103586  
         H         H         0.34618   0.76000   0.43874   0.102728  
         H         H         0.23609   0.58062   0.50372   0.102805  
         H         H         0.58064   0.33917   0.47338   0.103045  
         H         H         0.65498   0.24289   0.55910   0.102799  
         H         H         0.76176   0.42397   0.50599   0.101060  
         C         C         0.38337   0.63970   0.53903   0.119163  
         C         C         0.36776   0.75026   0.44861   0.117602  
         C         C         0.24736   0.61243   0.49032   0.129224  
         C         C         0.61359   0.36173   0.46873   0.120683  
         C         C         0.63299   0.25235   0.55036   0.119956  
         C         C         0.75049   0.39239   0.52157   0.124494  
         N         N         0.36882   0.60135   0.56317   -0.232434           
         N         N         0.40904   0.77745   0.43720   -0.241331           
         N         N         0.22100   0.62251   0.46907   -0.221028           
         N         N         0.62686   0.39991   0.44599   -0.230049           
         N         N         0.59217   0.22456   0.55828   -0.240763           
         N         N         0.77625   0.38274   0.54799   -0.220110           
         H         H         0.33717   0.58317   0.55828   0.272659  
         H         H         0.42693   0.76323   0.43985   0.275458  
         H         H         0.23614   0.65319   0.45051   0.275560  
         H         H         0.65843   0.41880   0.45027   0.273035  
         H         H         0.57378   0.23876   0.55841   0.274052  
         H         H         0.76078   0.35184   0.56571   0.271659  
         C         C         0.39250   0.58427   0.57711   0.218746  
         C         C         0.42507   0.82054   0.44264   0.213117  
         C         C         0.17787   0.59637   0.47415   0.207266  
         C         C         0.60206   0.41616   0.43436   0.216950  
         C         C         0.57617   0.18133   0.55111   0.212797  
         C         C         0.81891   0.40832   0.54871   0.208748  
         H         H         0.34465   0.52091   0.54272   0.124859  
         H         H         0.49497   0.82457   0.32130   0.127009  
         H         H         0.17889   0.63038   0.33413   0.120665  
         H         H         0.64989   0.47958   0.46413   0.125214  
         H         H         0.50659   0.17794   0.67108   0.127871  
         H         H         0.81522   0.37027   0.67895   0.120313  
         C         C         0.37611   0.54017   0.55909   -0.175898           
         C         C         0.47178   0.84212   0.37982   -0.178419           
         C         C         0.15925   0.60443   0.39872   -0.184493           
         C         C         0.61806   0.46014   0.45095   -0.174786           
         C         C         0.52942   0.15999   0.61263   -0.178172           
         C         C         0.83593   0.39735   0.62084   -0.184537           
         C         C         0.43198   0.60928   0.60649   -0.185919           
         C         C         0.39563   0.84361   0.51654   -0.185015           
         C         C         0.15253   0.56264   0.55563   -0.187619           
         C         C         0.56196   0.39079   0.40973   -0.183541           
         C         C         0.60531   0.15785   0.47599   -0.186555           
         C         C         0.84548   0.44378   0.47689   -0.188929           
         H         H         0.44348   0.64394   0.63526   0.121989  
         H         H         0.35928   0.82798   0.57198   0.119705  
         H         H         0.16524   0.55671   0.62155   0.104767  
         H         H         0.55043   0.35621   0.38361   0.121089  
         H         H         0.64171   0.17328   0.42135   0.118286  
         H         H         0.83373   0.45212   0.41505   0.109937  
         H         H         0.48654   0.60965   0.62770   0.087474  
         H         H         0.38866   0.90446   0.59578   0.079691  
         H         H         0.09013   0.51339   0.63410   0.093335  
         H         H         0.50632   0.38971   0.39342   0.090731  
         H         H         0.61153   0.09643   0.39437   0.082157  
         H         H         0.90912   0.49327   0.41024   0.093587  
         C         C         0.45635   0.58982   0.60194   -0.112364           
         C         C         0.41249   0.88699   0.52810   -0.122007           
         C         C         0.10962   0.53762   0.56131   -0.112483           
         C         C         0.53690   0.40984   0.41614   -0.112751           
         C         C         0.58801   0.11430   0.46302   -0.122049           
         C         C         0.88838   0.46711   0.47425   -0.114843           
         C         C         0.40095   0.52111   0.55395   -0.124844           
         C         C         0.48821   0.88547   0.39113   -0.115060           
         C         C         0.11646   0.57874   0.40317   -0.122600           
         C         C         0.59249   0.47875   0.45852   -0.123415           
         C         C         0.51253   0.11657   0.60069   -0.114198           
         C         C         0.87855   0.42133   0.62053   -0.126615           
         H         H         0.38857   0.48661   0.53224   0.106844  
         H         H         0.52456   0.90117   0.33832   0.111565  
         H         H         0.10336   0.58482   0.33907   0.098857  
         H         H         0.60465   0.51317   0.47914   0.103342  
         H         H         0.47613   0.10117   0.65350   0.111727  
         H         H         0.89037   0.41300   0.68227   0.093600  
         C         C         0.44268   0.54511   0.56713   0.058582  
         C         C         0.45915   0.90932   0.46663   0.055226  
         C         C         0.09037   0.54471   0.48532   0.053308  
         C         C         0.55036   0.45446   0.44900   0.060991  
         C         C         0.54124   0.09234   0.52499   0.054137  
         C         C         0.90602   0.45654   0.54590   0.051787  
         C         C         0.47112   0.52348   0.53886   0.024859  
         C         C         0.47800   0.95585   0.48338   0.013243  
         C         C         0.04360   0.52021   0.50085   0.023426  
         C         C         0.52169   0.47604   0.47863   0.023915  
         C         C         0.52200   0.04580   0.50873   0.010865  
         C         C         0.95234   0.47999   0.53584   0.022304  
         H         H         0.41427   0.47888   0.68789   0.101986  
         H         H         0.53190   0.96254   0.52891   0.110541  
         H         H         0.03345   0.57706   0.54449   0.105683  
         H         H         0.57852   0.52068   0.32974   0.100898  
         H         H         0.46808   0.03916   0.46340   0.110533  
         H         H         0.96232   0.42317   0.49126   0.105024  
         C         C         0.45058   0.48794   0.60662   -0.189666           
         C         C         0.51789   0.97909   0.51119   -0.191525           
         C         C         0.01810   0.54272   0.52952   -0.189739           
         C         C         0.54223   0.51162   0.41101   -0.187197           
         C         C         0.48201   0.02259   0.48147   -0.189542           
         C         C         0.97775   0.45748   0.50720   -0.190600           
         C         C         0.51865   0.53533   0.43683   0.082879  
         C         C         0.45950   0.97894   0.46947   0.086086  
         C         C         0.02166   0.47628   0.49719   0.082242  
         C         C         0.47421   0.46433   0.58141   0.081179  
         C         C         0.54029   0.02273   0.52377   0.085263  
         C         C         0.97288   0.52454   0.55623   0.077928  
         C         C         0.54564   0.57201   0.35140   -0.225784           
         C         C         0.41665   0.95984   0.44360   -0.228323           
         C         C         0.03999   0.44746   0.49438   -0.226796           
         C         C         0.44737   0.42798   0.66838   -0.230874           
         C         C         0.58285   0.04162   0.55144   -0.230066           
         C         C         0.94640   0.55403   0.63281   -0.237038           
         H         H         0.57259   0.56362   0.21780   0.100888  
         H         H         0.41870   0.97648   0.36584   0.109797  
         H         H         0.03835   0.45613   0.63007   0.098779  
         H         H         0.46867   0.41916   0.68487   0.110452  
         H         H         0.58978   0.07589   0.62160   0.111023  
         H         H         0.91007   0.53719   0.69140   0.106722  
         H         H         0.42459   0.43909   0.29816   0.101409  
         H         H         0.59013   0.01073   0.02910   0.105962  
         H         H         0.93286   0.52195   0.92088   0.105190  
         H         H         0.52917   0.58130   0.81926   0.108187  
         H         H         0.41314   0.93516   0.83936   0.099411  
         H         H         0.07417   0.44220   0.77199   0.101491  
         S         S         0.57145   0.61788   0.50203   -0.055938           
         S         S         0.36980   0.96746   0.67094   -0.051963           
         S         S         0.09727   0.44515   0.32239   -0.007512           
         S         S         0.42045   0.38203   0.52192   -0.040872           
         S         S         0.62951   0.03246   0.32502   -0.050781           
         S         S         0.95915   0.57633   0.46223   -0.045713           
         C         C         0.59289   0.66225   0.40989   -0.138593           
         C         C         0.32053   0.93680   0.61701   -0.135637           
         C         C         0.08763   0.38830   0.26956   -0.145207           
         C         C         0.39904   0.33843   0.61826   -0.140392           
         C         C         0.67899   0.06202   0.37733   -0.139479           
         C         C         0.92473   0.61211   0.61335   -0.144745           
         H         H         0.61753   0.68687   0.46657   0.103534  
         H         H         0.29234   0.94349   0.74926   0.105689  
         H         H         0.05904   0.36969   0.23079   0.094402  
         H         H         0.38194   0.34985   0.76681   0.093354  
         H         H         0.67631   0.04740   0.46434   0.085520  
         H         H         0.93427   0.63214   0.72831   0.089268  
         H         H         0.37960   0.31518   0.04815   0.104553  
         H         H         0.67522   0.06160   0.97338   0.090334  
         H         H         0.98515   0.62189   0.94282   0.105358  
         H         H         0.57976   0.66685   0.86145   0.095517  
         H         H         0.33149   0.90077   0.92891   0.091895  
         H         H         0.07578   0.37613   0.80093   0.094868  
         C         C         0.55676   0.67957   0.46054   -0.379283           
         C         C         0.31285   0.88858   0.53363   -0.376038           
         C         C         0.08091   0.37473   0.41957   -0.375886           
         C         C         0.43491   0.32005   0.56201   -0.380460           
         C         C         0.68741   0.11030   0.46088   -0.377454           
         C         C         0.87376   0.58921   0.67738   -0.374108           
         H         H         0.53791   0.68946   0.60877   0.128703  
         H         H         0.30926   0.87397   0.62298   0.120901  
         H         H         0.05034   0.37968   0.54260   0.120138  
         H         H         0.46040   0.34403   0.61462   0.114386  
         H         H         0.66024   0.11759   0.59587   0.126094  
         H         H         0.86189   0.56708   0.75391   0.124158  
         H         H         0.45953   0.31314   0.90427   0.127554  
         H         H         0.73166   0.07691   0.66512   0.121746  
         H         H         0.90339   0.60781   0.01309   0.124199  
         H         H         0.61439   0.71379   0.09237   0.122727  
         H         H         0.27847   0.86085   0.17039   0.127184  
         H         H         0.14593   0.43732   0.68312   0.120080  
         H         H         0.57222   0.70751   0.40869   0.119889  
         H         H         0.28192   0.87265   0.51045   0.123725  
         H         H         0.07759   0.34066   0.37499   0.121213  
         H         H         0.41956   0.29266   0.61700   0.123244  
         H         H         0.71903   0.12579   0.47870   0.122402  
         H         H         0.85489   0.61234   0.76701   0.121073 

