
##########################################################################
#               Crystallographic Information Format file
#               Produced by PyCifRW module
#
#  This is a CIF file.  CIF has been adopted by the International
#  Union of Crystallography as the standard for data archiving and
#  transmission.
#
#  For information on this file format, follow the CIF links at
#  http://www.iucr.org
##########################################################################

data_image0

_cell_length_a                          32.2917
_cell_length_b                          19.0936
_cell_length_c                          8.39937
_cell_angle_alpha                       93.4754
_cell_angle_beta                        90.8801
_cell_angle_gamma                       126.046
_symmetry_space_group_name_H-M          'P 1'
_space_group_name_Hall                  'P 1'
loop_
  _atom_site_type_symbol
  _atom_site_label
  _atom_site_fract_x
  _atom_site_fract_y
  _atom_site_fract_z
  _atom_site_charge
         H         H         0.16814   0.11076   0.39016   0.121349  
         H         H         0.24223   0.11015   0.38194   0.113967  
         H         H         0.32924   0.36441   0.21327   0.096775  
         H         H         0.25694   0.37128   0.24567   0.112859  
         H         H         0.23847   0.40477   0.53300   0.115206  
         H         H         0.26002   0.55027   0.48886   0.118955  
         H         H         0.13709   0.43101   0.12355   0.105708  
         H         H         0.11833   0.28774   0.15862   0.111020  
         H         H         0.07038   0.21094   0.32182   0.115434  
         H         H         0.99128   0.08298   0.40957   0.102433  
         H         H         0.07771   0.01701   0.66974   0.115310  
         H         H         0.15766   0.15058   0.59515   0.108291  
         H         H         0.19531   0.58877   0.16318   0.066904  
         H         H         0.29674   0.10361   0.25351   0.111856  
         H         H         0.46326   0.36009   0.48751   0.112921  
         H         H         0.44004   0.10851   0.31030   0.105537  
         H         H         0.50770   0.09801   0.41007   0.109592  
         H         H         0.55948   0.31184   0.76065   0.112874  
         H         H         0.49223   0.32156   0.66369   0.117673  
         H         H         0.48214   0.04077   0.64250   0.114998  
         H         H         0.46151   0.89614   0.66813   0.116776  
         H         H         0.62086   0.01101   0.76943   0.101534  
         H         H         0.64277   0.15595   0.73856   0.112835  
         H         H         0.65142   0.21171   0.48549   0.115424  
         H         H         0.74036   0.34459   0.47875   0.106916  
         H         H         0.70859   0.47804   0.82918   0.115932  
         H         H         0.62172   0.34289   0.84875   0.119159  
         H         H         0.36659   0.40096   0.45049   0.059904  
         H         H         0.80186   0.50326   0.53362   0.066740  
         H         H         0.52568   0.61658   0.42262   0.119476  
         H         H         0.54384   0.76093   0.49913   0.107400  
         H         H         0.40446   0.63574   0.74602   0.122708  
         H         H         0.38602   0.49181   0.66812   0.102158  
         H         H         0.34068   0.79386   0.44455   0.123086  
         H         H         0.37532   0.94685   0.40360   0.111695  
         H         H         0.23325   0.85822   0.15312   0.117863  
         H         H         0.19860   0.70483   0.19274   0.109757  
         H         H         0.88291   0.59797   0.59405   0.110590  
         H         H         0.96245   0.74287   0.55096   0.123459  
         H         H         0.90137   0.86677   0.78727   0.102889  
         H         H         0.82239   0.72101   0.83723   0.118297  
         H         H         0.36662   0.04662   0.47269   0.065663  
         H         H         0.56164   0.85460   0.72802   0.059154  
         H         H         0.94474   0.94622   0.54486   0.060381  
         C         C         0.17612   0.32987   0.84981   0.170476  
         C         C         0.12037   0.18041   0.93847   0.186284  
         C         C         0.20678   0.23905   0.84089   0.186193  
         C         C         0.20370   0.16402   0.86874   -0.188948           
         C         C         0.24622   0.16301   0.85789   -0.109173           
         C         C         0.29354   0.23393   0.81056   0.041117  
         C         C         0.29355   0.30222   0.75638   -0.112871           
         C         C         0.25160   0.30498   0.77100   -0.200313           
         C         C         0.21951   0.40531   0.93173   -0.159312           
         C         C         0.23196   0.48693   0.91068   -0.099276           
         C         C         0.20033   0.49598   0.80983   0.044576  
         C         C         0.15648   0.42057   0.73132   -0.118737           
         C         C         0.14482   0.33853   0.74841   -0.175140           
         C         C         0.07195   0.15924   0.89207   -0.184558           
         C         C         0.02745   0.08676   0.94670   -0.122732           
         C         C         0.02943   0.03229   0.04637   0.042651  
         C         C         0.07802   0.05867   0.10549   -0.089544           
         C         C         0.12221   0.13213   0.05543   -0.183942           
         C         C         0.21427   0.58146   0.77776   0.056684  
         C         C         0.33905   0.23387   0.83174   0.035413  
         C         C         0.33300   0.15492   0.80581   -0.159460           
         C         C         0.37009   0.14390   0.85798   0.031765  
         C         C         0.41836   0.21717   0.92684   0.023906  
         C         C         0.42602   0.29733   0.93964   -0.155731           
         C         C         0.38749   0.30733   0.89923   0.026998  
         C         C         0.45955   0.21109   0.98285   0.054799  
         C         C         0.46558   0.14854   0.91486   -0.123608           
         C         C         0.50479   0.14416   0.96980   -0.181788           
         C         C         0.53937   0.20108   0.09702   0.168717  
         C         C         0.53483   0.26552   0.16214   -0.168274           
         C         C         0.49584   0.27022   0.10576   -0.115385           
         C         C         0.63039   0.26821   0.16148   0.170898  
         C         C         0.56652   0.10975   0.17419   0.194795  
         C         C         0.51514   0.03367   0.16320   -0.191714           
         C         C         0.50387   0.95200   0.17108   -0.080933           
         C         C         0.54300   0.94114   0.19397   0.031437  
         C         C         0.59362   0.01675   0.21769   -0.113608           
         C         C         0.60534   0.09911   0.20925   -0.209605           
         C         C         0.66446   0.26875   0.05916   -0.168206           
         C         C         0.71457   0.34297   0.05484   -0.121692           
         C         C         0.73161   0.41961   0.14993   0.045002  
         C         C         0.69751   0.41824   0.25404   -0.096205           
         C         C         0.64802   0.34336   0.26206   -0.163318           
         C         C         0.39850   0.39253   0.94035   0.065278  
         C         C         0.78250   0.49990   0.13461   0.062390  
         C         C         0.26853   0.73421   0.82306   0.192370  
         C         C         0.45449   0.53972   0.02880   0.193210  
         C         C         0.84773   0.64619   0.21207   0.196354  
         C         C         0.50093   0.61608   0.98958   -0.144911           
         C         C         0.51229   0.69729   0.03261   -0.179952           
         C         C         0.47823   0.70559   0.12037   0.202728  
         C         C         0.43227   0.62917   0.16305   -0.149118           
         C         C         0.42080   0.54802   0.11857   -0.168205           
         C         C         0.31824   0.80369   0.88424   -0.136960           
         C         C         0.33787   0.88924   0.86146   -0.170662           
         C         C         0.30778   0.90832   0.77856   0.205771  
         C         C         0.25863   0.83876   0.71306   -0.149500           
         C         C         0.23892   0.75329   0.73686   -0.160405           
         C         C         0.88971   0.65324   0.14495   -0.167803           
         C         C         0.93499   0.73429   0.12666   -0.151662           
         C         C         0.93910   0.81099   0.16807   0.206168  
         C         C         0.89790   0.80403   0.24045   -0.180762           
         C         C         0.85358   0.72302   0.26589   -0.142858           
         C         C         0.35467   0.05504   0.86326   0.084554  
         C         C         0.53223   0.85567   0.18523   0.065409  
         C         C         0.98294   0.94957   0.08122   0.067728  
         N         N         0.16664   0.24746   0.87190   -0.135303           
         N         N         0.57791   0.19242   0.15788   -0.139299           
         N         N         0.25303   0.65119   0.85527   -0.288248           
         N         N         0.44503   0.46045   0.97646   -0.279349           
         N         N         0.80022   0.56794   0.23246   -0.292827           
         N         N         0.32334   0.99280   0.75594   -0.299992           
         N         N         0.48624   0.78508   0.15660   -0.287084           
         N         N         0.98470   0.89013   0.13938   -0.279964           
         H         H         0.16850   0.10629   0.90399   0.121706  
         H         H         0.24299   0.10641   0.89455   0.113073  
         H         H         0.32694   0.35461   0.70098   0.096528  
         H         H         0.25412   0.35988   0.72904   0.109787  
         H         H         0.24364   0.39847   0.01092   0.116128  
         H         H         0.26597   0.54510   0.97222   0.119268  
         H         H         0.13257   0.42667   0.64902   0.107006  
         H         H         0.11310   0.28273   0.67538   0.111601  
         H         H         0.06821   0.19594   0.80724   0.110457  
         H         H         0.99034   0.06956   0.90316   0.102398  
         H         H         0.08014   0.02090   0.19288   0.113272  
         H         H         0.15914   0.15296   0.10664   0.106125  
         H         H         0.19119   0.58205   0.68073   0.066555  
         H         H         0.29676   0.09736   0.75336   0.113135  
         H         H         0.46249   0.35592   0.98815   0.112153  
         H         H         0.44088   0.10535   0.81178   0.104663  
         H         H         0.50908   0.09652   0.91222   0.108605  
         H         H         0.55964   0.30937   0.26357   0.113386  
         H         H         0.49192   0.31804   0.16526   0.117125  
         H         H         0.48380   0.03897   0.14589   0.115092  
         H         H         0.46425   0.89430   0.15768   0.117193  
         H         H         0.62465   0.01069   0.24041   0.100352  
         H         H         0.64506   0.15547   0.22610   0.112787  
         H         H         0.65051   0.21132   0.97892   0.112483  
         H         H         0.74002   0.34287   0.97138   0.106437  
         H         H         0.71117   0.47660   0.33132   0.115509  
         H         H         0.62373   0.34267   0.35070   0.118800  
         H         H         0.36592   0.39636   0.93987   0.060800  
         H         H         0.80308   0.50017   0.03114   0.068401  
         H         H         0.52640   0.60922   0.91848   0.118955  
         H         H         0.54687   0.75525   0.99312   0.104893  
         H         H         0.40653   0.63555   0.23368   0.122647  
         H         H         0.38582   0.48991   0.15575   0.100631  
         H         H         0.34071   0.78784   0.94950   0.122149  
         H         H         0.37664   0.94140   0.90837   0.112253  
         H         H         0.23643   0.85431   0.64534   0.118348  
         H         H         0.20029   0.70116   0.68887   0.108425  
         H         H         0.88687   0.59469   0.10980   0.108726  
         H         H         0.96773   0.74040   0.07652   0.123637  
         H         H         0.90181   0.86298   0.28083   0.102006  
         H         H         0.82204   0.71693   0.32527   0.119278  
         H         H         0.36864   0.04322   0.97110   0.066677  
         H         H         0.56577   0.85446   0.20004   0.058544  
         H         H         0.94622   0.93802   0.04685   0.059575  
         C         C         0.17631   0.33603   0.35100   0.167707  
         C         C         0.12081   0.18650   0.43785   0.189013  
         C         C         0.20780   0.24639   0.34337   0.187442  
         C         C         0.20401   0.16986   0.36274   -0.188392           
         C         C         0.24635   0.16848   0.35182   -0.109199           
         C         C         0.29437   0.24079   0.31171   0.043645  
         C         C         0.29521   0.31098   0.26439   -0.113489           
         C         C         0.25354   0.31448   0.28084   -0.201561           
         C         C         0.21647   0.41101   0.44324   -0.156390           
         C         C         0.22859   0.49211   0.41900   -0.102483           
         C         C         0.20010   0.50082   0.30356   0.047520  
         C         C         0.15892   0.42549   0.21560   -0.119098           
         C         C         0.14764   0.34402   0.23677   -0.169992           
         C         C         0.07300   0.16948   0.39743   -0.191560           
         C         C         0.02782   0.09607   0.44734   -0.123285           
         C         C         0.02822   0.03647   0.53641   0.037787  
         C         C         0.07636   0.05858   0.58998   -0.085347           
         C         C         0.12125   0.13289   0.54552   -0.185931           
         C         C         0.21512   0.58672   0.26864   0.061704  
         C         C         0.33963   0.24011   0.33276   0.031936  
         C         C         0.33304   0.16077   0.30638   -0.158084           
         C         C         0.36960   0.14862   0.35856   0.031648  
         C         C         0.41824   0.22127   0.42625   0.023465  
         C         C         0.42651   0.30194   0.43956   -0.156494           
         C         C         0.38828   0.31292   0.40072   0.029537  
         C         C         0.45899   0.21400   0.48208   0.056867  
         C         C         0.46462   0.15097   0.41407   -0.124062           
         C         C         0.50364   0.14584   0.46830   -0.179620           
         C         C         0.53849   0.20264   0.59524   0.169419  
         C         C         0.53430   0.26757   0.66025   -0.167512           
         C         C         0.49557   0.27299   0.60445   -0.116762           
         C         C         0.62942   0.26875   0.66195   0.171622  
         C         C         0.56472   0.11063   0.67735   0.196265  
         C         C         0.51313   0.03513   0.66574   -0.191861           
         C         C         0.50120   0.95359   0.68167   -0.081022           
         C         C         0.53980   0.94238   0.71320   0.030432  
         C         C         0.59048   0.01757   0.73835   -0.111743           
         C         C         0.60297   0.09985   0.72097   -0.210417           
         C         C         0.66441   0.26942   0.56378   -0.168721           
         C         C         0.71440   0.34441   0.56034   -0.120248           
         C         C         0.73050   0.42158   0.65212   0.043335  
         C         C         0.69570   0.41948   0.75387   -0.095380           
         C         C         0.64640   0.34403   0.76121   -0.164285           
         C         C         0.39935   0.39777   0.44603   0.060914  
         C         C         0.78108   0.50275   0.63669   0.062019  
         C         C         0.26761   0.73891   0.32146   0.192646  
         C         C         0.45430   0.54441   0.53635   0.191216  
         C         C         0.84580   0.64967   0.71126   0.195983  
         C         C         0.49990   0.62175   0.49562   -0.146372           
         C         C         0.51017   0.70206   0.54016   -0.182567           
         C         C         0.47571   0.70804   0.63056   0.205543  
         C         C         0.43048   0.63073   0.67401   -0.151968           
         C         C         0.42021   0.55054   0.62888   -0.168687           
         C         C         0.31747   0.80872   0.38095   -0.136482           
         C         C         0.33648   0.89402   0.35859   -0.172394           
         C         C         0.30564   0.91273   0.27964   0.206277  
         C         C         0.25630   0.84297   0.21641   -0.151104           
         C         C         0.23735   0.75761   0.23839   -0.164421           
         C         C         0.88647   0.65660   0.63437   -0.167060           
         C         C         0.93113   0.73733   0.61077   -0.149992           
         C         C         0.93634   0.81452   0.65841   0.207032  
         C         C         0.89679   0.80782   0.74216   -0.184404           
         C         C         0.85283   0.72678   0.77107   -0.143484           
         C         C         0.35315   0.05925   0.36478   0.084098  
         C         C         0.52865   0.85668   0.70639   0.070016  
         C         C         0.98096   0.95455   0.57182   0.065998  
         N         N         0.16739   0.25403   0.37458   -0.134054           
         N         N         0.57680   0.19331   0.65581   -0.141012           
         N         N         0.25175   0.65572   0.35365   -0.285164           
         N         N         0.44581   0.46619   0.48094   -0.279534           
         N         N         0.79849   0.57114   0.73365   -0.294490           
         N         N         0.32120   0.99727   0.25809   -0.300861           
         N         N         0.48305   0.78677   0.66868   -0.286421           
         N         N         0.98161   0.89301   0.62504   -0.279441 

