
##########################################################################
#               Crystallographic Information Format file
#               Produced by PyCifRW module
#
#  This is a CIF file.  CIF has been adopted by the International
#  Union of Crystallography as the standard for data archiving and
#  transmission.
#
#  For information on this file format, follow the CIF links at
#  http://www.iucr.org
##########################################################################

data_image0

_cell_length_a                          15.893
_cell_length_b                          11.4181
_cell_length_c                          20.2559
_cell_angle_alpha                       89.693
_cell_angle_beta                        121.179
_cell_angle_gamma                       90.731
_symmetry_space_group_name_H-M          'P 1'
_space_group_name_Hall                  'P 1'
loop_
  _atom_site_type_symbol
  _atom_site_label
  _atom_site_fract_x
  _atom_site_fract_y
  _atom_site_fract_z
  _atom_site_charge
         O         O         0.45335   0.42915   0.18608   -0.308438           
         O         O         0.55231   0.42591   0.81683   -0.306869           
         O         O         0.55292   0.43447   0.31907   -0.310732           
         O         O         0.44996   0.42399   0.68370   -0.310287           
         O         O         0.54999   0.73049   0.20305   -0.517291           
         O         O         0.45695   0.72572   0.79538   -0.518516           
         O         O         0.46285   0.73665   0.29303   -0.499968           
         O         O         0.54065   0.72751   0.70262   -0.502208           
         C         C         0.50558   0.62353   0.16092   0.204569  
         C         C         0.49917   0.61961   0.83846   0.205314  
         C         C         0.46737   0.55027   0.20659   0.045246  
         C         C         0.53727   0.54583   0.79381   0.043987  
         C         C         0.50663   0.35631   0.25349   0.539907  
         C         C         0.50070   0.34939   0.75073   0.540019  
         C         C         0.43318   0.27684   0.25980   -0.512549           
         C         C         0.57539   0.27608   0.74381   -0.515097           
         C         C         0.58582   0.28862   0.24924   -0.517989           
         C         C         0.42475   0.27561   0.75738   -0.517031           
         C         C         0.54001   0.55338   0.29418   0.044113  
         C         C         0.46364   0.54406   0.70617   0.042128  
         C         C         0.50184   0.62825   0.33786   0.204618  
         C         C         0.50074   0.61663   0.66021   0.205180  
         C         C         0.17356   0.83351   0.72595   0.234497  
         C         C         0.82779   0.84422   0.27292   0.235909  
         N         N         0.22780   0.79764   0.80381   -0.383488           
         N         N         0.77247   0.80934   0.19467   -0.391172           
         C         C         0.19450   0.73970   0.84638   0.459147  
         C         C         0.80527   0.75066   0.15266   0.459495  
         C         C         0.27317   0.71556   0.92827   -0.035929           
         C         C         0.72704   0.72230   0.07115   -0.033493           
         C         C         0.26221   0.61580   0.96394   -0.085772           
         C         C         0.74275   0.62673   0.03578   -0.085984           
         C         C         0.33562   0.58503   0.03864   -0.134292           
         C         C         0.67086   0.59193   0.96120   -0.133523           
         C         C         0.42073   0.65473   0.07999   0.026970  
         C         C         0.58250   0.65335   0.91977   0.025420  
         C         C         0.42888   0.75761   0.04556   -0.123362           
         C         C         0.56875   0.75134   0.95442   -0.121273           
         C         C         0.35643   0.78752   0.97068   -0.125656           
         C         C         0.63966   0.78530   0.02901   -0.126213           
         C         C         0.08062   0.78758   0.67143   -0.170550           
         C         C         0.91493   0.79004   0.32878   -0.168600           
         C         C         0.03046   0.83335   0.59665   -0.114517           
         C         C         0.96539   0.83277   0.40454   -0.118956           
         C         C         0.06910   0.92611   0.57423   0.038680  
         C         C         0.93303   0.93078   0.42642   0.041453  
         C         C         0.16389   0.96723   0.62879   -0.138617           
         C         C         0.84429   0.98160   0.37003   -0.136190           
         C         C         0.21600   0.92079   0.70289   -0.199019           
         C         C         0.79180   0.93838   0.29503   -0.196086           
         C         C         0.82702   0.83384   0.77461   0.232081  
         C         C         0.16394   0.83555   0.22729   0.231290  
         N         N         0.77413   0.80255   0.69587   -0.379895           
         N         N         0.21780   0.79965   0.30517   -0.380907           
         C         C         0.80765   0.74683   0.65365   0.449910  
         C         C         0.18707   0.73503   0.34685   0.450058  
         C         C         0.72977   0.72375   0.57121   -0.022349           
         C         C         0.26773   0.71046   0.42841   -0.021875           
         C         C         0.74412   0.62937   0.53424   -0.076412           
         C         C         0.25349   0.61659   0.46666   -0.077030           
         C         C         0.67249   0.59843   0.45890   -0.115511           
         C         C         0.32691   0.58479   0.54110   -0.117599           
         C         C         0.58459   0.66117   0.41887   0.013982  
         C         C         0.41690   0.64617   0.57906   0.014129  
         C         C         0.57165   0.75728   0.45546   -0.153462           
         C         C         0.43060   0.74049   0.54079   -0.152308           
         C         C         0.64379   0.78928   0.53026   -0.120284           
         C         C         0.35668   0.77345   0.46718   -0.119574           
         C         C         0.78378   0.91661   0.79853   -0.201401           
         C         C         0.20147   0.93265   0.20752   -0.199785           
         C         C         0.83485   0.96014   0.87349   -0.133945           
         C         C         0.15129   0.97682   0.13296   -0.131103           
         C         C         0.92935   0.92031   0.92752   0.044913  
         C         C         0.06358   0.92408   0.07509   0.045435  
         C         C         0.96815   0.83058   0.90434   -0.110466           
         C         C         0.02960   0.82366   0.09481   -0.116490           
         C         C         0.91910   0.78775   0.82882   -0.170842           
         C         C         0.07777   0.77972   0.17016   -0.162671           
         C         C         0.84395   0.19866   0.08683   0.236506  
         C         C         0.15326   0.19213   0.91054   0.236583  
         N         N         0.79010   0.26131   0.11209   -0.372612           
         N         N         0.20865   0.25479   0.88564   -0.371965           
         C         C         0.81193   0.37038   0.14691   0.453005  
         C         C         0.18574   0.35898   0.84495   0.451698  
         C         C         0.73117   0.42444   0.15316   -0.044231           
         C         C         0.26912   0.41678   0.84246   -0.047001           
         C         C         0.75720   0.50839   0.21098   -0.090056           
         C         C         0.24513   0.50076   0.78484   -0.088802           
         C         C         0.68485   0.57205   0.21383   -0.124517           
         C         C         0.31870   0.56657   0.78345   -0.125196           
         C         C         0.58517   0.55533   0.15776   0.039355  
         C         C         0.41776   0.55141   0.84057   0.040056  
         C         C         0.55932   0.47064   0.10042   -0.116339           
         C         C         0.44167   0.46749   0.89815   -0.115857           
         C         C         0.63129   0.40515   0.09845   -0.131586           
         C         C         0.36844   0.40052   0.89899   -0.130611           
         C         C         0.92717   0.24535   0.08851   -0.180223           
         C         C         0.06139   0.22914   0.89629   -0.181970           
         C         C         0.97329   0.18029   0.05838   -0.123184           
         C         C         0.01441   0.16599   0.92737   -0.115995           
         C         C         0.93943   0.06890   0.02624   0.043916  
         C         C         0.05572   0.06614   0.97306   0.045178  
         C         C         0.85854   0.02155   0.02799   -0.116652           
         C         C         0.14539   0.02738   0.98367   -0.123337           
         C         C         0.81094   0.08540   0.05713   -0.205282           
         C         C         0.19377   0.08939   0.95339   -0.206491           
         C         C         0.15798   0.20272   0.41297   0.235733  
         C         C         0.84875   0.19855   0.59117   0.233852  
         N         N         0.21336   0.26514   0.38782   -0.378809           
         N         N         0.79410   0.26035   0.61638   -0.372007           
         C         C         0.18837   0.36811   0.34544   0.450826  
         C         C         0.81220   0.37175   0.64777   0.451843  
         C         C         0.27073   0.42735   0.34204   -0.039240           
         C         C         0.73057   0.42384   0.65417   -0.039856           
         C         C         0.24671   0.50899   0.28308   -0.087043           
         C         C         0.75530   0.50687   0.71241   -0.087647           
         C         C         0.32014   0.57526   0.28156   -0.126540           
         C         C         0.68212   0.56919   0.71511   -0.125943           
         C         C         0.41907   0.56234   0.33967   0.028650  
         C         C         0.58279   0.55171   0.65856   0.029813  
         C         C         0.44286   0.48106   0.39870   -0.115044           
         C         C         0.55825   0.46790   0.60092   -0.114678           
         C         C         0.36980   0.41434   0.39987   -0.133434           
         C         C         0.63098   0.40409   0.59888   -0.134517           
         C         C         0.19113   0.09171   0.44590   -0.207956           
         C         C         0.80879   0.09304   0.55096   -0.208760           
         C         C         0.14284   0.02880   0.47584   -0.119116           
         C         C         0.85659   0.03103   0.52111   -0.122513           
         C         C         0.06086   0.07481   0.47527   0.047480  
         C         C         0.94516   0.07249   0.52933   0.048324  
         C         C         0.02701   0.18405   0.44013   -0.118401           
         C         C         0.98618   0.17505   0.57261   -0.116546           
         C         C         0.07372   0.24792   0.40898   -0.180086           
         C         C         0.93983   0.23817   0.60344   -0.177843           
         O         O         0.10856   0.70826   0.82012   -0.432889           
         O         O         0.89124   0.72157   0.17961   -0.436054           
         O         O         0.89284   0.71482   0.68028   -0.420607           
         O         O         0.10281   0.69768   0.32076   -0.421375           
         O         O         0.89027   0.42316   0.16885   -0.426349           
         O         O         0.10416   0.40490   0.81463   -0.433872           
         O         O         0.10618   0.41180   0.31521   -0.425656           
         O         O         0.88784   0.42868   0.66680   -0.423211           
         H         H         0.51069   0.75373   0.22546   0.331651  
         H         H         0.49813   0.74857   0.77424   0.332488  
         H         H         0.50372   0.79984   0.32705   0.347861  
         H         H         0.49575   0.78763   0.66897   0.347814  
         H         H         0.39596   0.58651   0.19173   0.063648  
         H         H         0.60806   0.58451   0.80713   0.063698  
         H         H         0.47132   0.22269   0.31192   0.138125  
         H         H         0.63072   0.33327   0.74292   0.142851  
         H         H         0.39615   0.21897   0.20925   0.149349  
         H         H         0.53774   0.22518   0.69009   0.138330  
         H         H         0.37796   0.32979   0.26248   0.143705  
         H         H         0.61217   0.21552   0.79273   0.149539  
         H         H         0.63724   0.34913   0.24545   0.143841  
         H         H         0.46115   0.22171   0.80970   0.143162  
         H         H         0.55176   0.23173   0.19819   0.141465  
         H         H         0.38543   0.21775   0.70698   0.147489  
         H         H         0.62671   0.23423   0.30098   0.147529  
         H         H         0.37155   0.33245   0.76011   0.144250  
         H         H         0.61086   0.59096   0.30707   0.061039  
         H         H         0.39298   0.58046   0.69288   0.059672  
         H         H         0.30179   0.80890   0.82988   0.264549  
         H         H         0.69864   0.81893   0.16930   0.264513  
         H         H         0.19602   0.56227   0.93127   0.121807  
         H         H         0.81127   0.57911   0.06876   0.122637  
         H         H         0.32701   0.50521   0.06431   0.118157  
         H         H         0.68359   0.51553   0.93578   0.118166  
         H         H         0.49267   0.81417   0.07851   0.100696  
         H         H         0.50190   0.80136   0.92171   0.099998  
         H         H         0.36445   0.86842   0.94564   0.092785  
         H         H         0.62707   0.86271   0.05374   0.091977  
         H         H         0.04589   0.72120   0.68832   0.146255  
         H         H         0.94535   0.71895   0.31248   0.143159  
         H         H         0.95723   0.79894   0.55610   0.106873  
         H         H         0.03381   0.79101   0.44661   0.106525  
         H         H         0.19640   0.03956   0.61424   0.097910  
         H         H         0.81760   0.05903   0.38413   0.100025  
         H         H         0.28867   0.95571   0.74436   0.107246  
         H         H         0.72424   0.98083   0.25213   0.106579  
         H         H         0.70052   0.81530   0.66877   0.252588  
         H         H         0.29076   0.81820   0.33226   0.250780  
         H         H         0.81167   0.57979   0.56683   0.129608  
         H         H         0.18391   0.56860   0.43590   0.127390  
         H         H         0.68400   0.52325   0.43183   0.126007  
         H         H         0.31455   0.51041   0.56897   0.125477  
         H         H         0.50341   0.80605   0.42600   0.091861  
         H         H         0.50065   0.78733   0.56828   0.091789  
         H         H         0.63261   0.86620   0.55624   0.094483  
         H         H         0.36926   0.84972   0.44076   0.092744  
         H         H         0.71154   0.95088   0.75706   0.101879  
         H         H         0.26807   0.97667   0.25182   0.101638  
         H         H         0.80233   0.02972   0.88904   0.101056  
         H         H         0.17862   0.05621   0.12020   0.103718  
         H         H         0.04109   0.79723   0.94485   0.110525  
         H         H         0.96158   0.78105   0.05142   0.110153  
         H         H         0.95423   0.72434   0.81132   0.147012  
         H         H         0.04628   0.70673   0.18510   0.147660  
         H         H         0.72785   0.22133   0.10362   0.265552  
         H         H         0.27554   0.22110   0.90239   0.263432  
         H         H         0.83496   0.52543   0.25162   0.128375  
         H         H         0.16773   0.51574   0.74302   0.129155  
         H         H         0.70607   0.63813   0.25827   0.109864  
         H         H         0.29890   0.63283   0.73923   0.111115  
         H         H         0.48246   0.45807   0.05627   0.099328  
         H         H         0.51813   0.45661   0.94313   0.100677  
         H         H         0.60953   0.34296   0.05158   0.095055  
         H         H         0.38925   0.33913   0.94621   0.094252  
         H         H         0.95492   0.33095   0.11391   0.135917  
         H         H         0.02835   0.30626   0.86115   0.135855  
         H         H         0.03779   0.21788   0.06043   0.106979  
         H         H         0.94305   0.19549   0.91536   0.107175  
         H         H         0.83255   0.93316   0.00685   0.107106  
         H         H         0.17828   0.94763   0.01600   0.106653  
         H         H         0.74813   0.04662   0.05741   0.102869  
         H         H         0.26373   0.05770   0.96322   0.103238  
         H         H         0.27872   0.22922   0.40202   0.263616  
         H         H         0.73167   0.21975   0.60708   0.264309  
         H         H         0.16939   0.52176   0.24007   0.130561  
         H         H         0.83277   0.52445   0.75380   0.132198  
         H         H         0.29975   0.63964   0.23612   0.115403  
         H         H         0.70299   0.63435   0.76011   0.114126  
         H         H         0.51905   0.47187   0.44460   0.099730  
         H         H         0.48150   0.45455   0.55678   0.099380  
         H         H         0.39016   0.35543   0.44818   0.094242  
         H         H         0.60999   0.34276   0.55169   0.097410  
         H         H         0.25483   0.05410   0.44752   0.099680  
         H         H         0.73958   0.05930   0.54281   0.098345  
         H         H         0.16916   0.94216   0.49965   0.104689  
         H         H         0.82420   0.94920   0.49075   0.103678  
         H         H         0.96185   0.22069   0.43637   0.107259  
         H         H         0.05689   0.20687   0.58311   0.108765  
         H         H         0.04536   0.33152   0.38106   0.136825  
         H         H         0.97296   0.31716   0.63694   0.137442  
         C         C         0.00204   -0.00080  0.50146   0.024468  
         C         C         0.99709   0.99299   0.00053   0.021755 

