
##########################################################################
#               Crystallographic Information Format file
#               Produced by PyCifRW module
#
#  This is a CIF file.  CIF has been adopted by the International
#  Union of Crystallography as the standard for data archiving and
#  transmission.
#
#  For information on this file format, follow the CIF links at
#  http://www.iucr.org
##########################################################################

data_image0

_cell_length_a                          15.7193
_cell_length_b                          9.89275
_cell_length_c                          22.2279
_cell_angle_alpha                       90.3366
_cell_angle_beta                        130.712
_cell_angle_gamma                       89.1858
_symmetry_space_group_name_H-M          'P 1'
_space_group_name_Hall                  'P 1'
loop_
  _atom_site_type_symbol
  _atom_site_label
  _atom_site_fract_x
  _atom_site_fract_y
  _atom_site_fract_z
  _atom_site_charge
         O         O         0.43841   0.39449   0.18231   -0.308365           
         O         O         0.56434   0.39077   0.81969   -0.306430           
         O         O         0.56488   0.39632   0.32002   -0.308032           
         O         O         0.43836   0.39113   0.68201   -0.308511           
         O         O         0.55370   0.73732   0.21831   -0.502492           
         O         O         0.44213   0.72686   0.77954   -0.516895           
         O         O         0.44295   0.73332   0.27999   -0.516877           
         O         O         0.55792   0.73235   0.72158   -0.502683           
         C         C         0.49702   0.62026   0.16908   0.201182  
         C         C         0.49592   0.60797   0.83073   0.207136  
         C         C         0.45546   0.53345   0.20444   0.042799  
         C         C         0.54202   0.52872   0.79615   0.053443  
         C         C         0.50407   0.30836   0.25180   0.537987  
         C         C         0.50404   0.30387   0.75110   0.538998  
         C         C         0.42555   0.21975   0.25186   -0.516213           
         C         C         0.58764   0.22108   0.75249   -0.516086           
         C         C         0.58758   0.22412   0.25369   -0.514477           
         C         C         0.42539   0.21377   0.75033   -0.514688           
         C         C         0.54246   0.53414   0.29590   0.056494  
         C         C         0.45660   0.52956   0.70479   0.042426  
         C         C         0.49771   0.61463   0.33128   0.203259  
         C         C         0.50103   0.61620   0.67142   0.200310  
         C         C         0.18567   0.85331   0.73475   0.194262  
         C         C         0.82915   0.85563   0.26755   0.202219  
         N         N         0.24177   0.82400   0.81429   -0.305264           
         N         N         0.77122   0.82376   0.18846   -0.271372           
         C         C         0.19569   0.76031   0.83698   0.086984  
         C         C         0.81462   0.76742   0.16141   0.072705  
         C         C         0.25938   0.73682   0.92141   0.046380  
         C         C         0.74068   0.73405   0.07687   0.056100  
         C         C         0.22898   0.63658   0.94856   -0.122490           
         C         C         0.77655   0.65480   0.04433   -0.127487           
         C         C         0.30069   0.60124   0.02908   -0.131556           
         C         C         0.70052   0.61421   0.96478   -0.123831           
         C         C         0.40286   0.66773   0.08362   0.035042  
         C         C         0.58752   0.65412   0.91633   0.028650  
         C         C         0.42796   0.77671   0.05728   -0.122157           
         C         C         0.55247   0.73698   0.94852   -0.131381           
         C         C         0.35787   0.81051   0.97764   -0.101466           
         C         C         0.62745   0.77685   0.02696   -0.095831           
         C         C         0.09338   0.78427   0.66763   -0.171702           
         C         C         0.92330   0.78633   0.33472   -0.176478           
         C         C         0.04152   0.83047   0.59125   -0.126422           
         C         C         0.97421   0.83134   0.41120   -0.130909           
         C         C         0.07877   0.94740   0.57942   0.058664  
         C         C         0.93398   0.94744   0.42277   0.054893  
         C         C         0.17451   0.01079   0.64642   -0.129584           
         C         C         0.83665   0.01118   0.35555   -0.136942           
         C         C         0.22813   0.96380   0.72242   -0.159784           
         C         C         0.78380   0.96509   0.27975   -0.138749           
         C         C         0.82938   0.84913   0.76959   0.204816  
         C         C         0.18778   0.85957   0.23795   0.197163  
         N         N         0.77207   0.82049   0.69014   -0.277757           
         N         N         0.24538   0.82914   0.31761   -0.302410           
         C         C         0.81633   0.76589   0.66324   0.074435  
         C         C         0.19866   0.76998   0.34103   0.089692  
         C         C         0.74339   0.73649   0.57830   0.055242  
         C         C         0.26432   0.74224   0.42539   0.048694  
         C         C         0.77734   0.65150   0.54640   -0.123853           
         C         C         0.23191   0.64377   0.45192   -0.123376           
         C         C         0.70130   0.61326   0.46643   -0.124415           
         C         C         0.30378   0.60460   0.53185   -0.133782           
         C         C         0.59007   0.66069   0.41689   0.029207  
         C         C         0.40836   0.66590   0.58639   0.037752  
         C         C         0.55733   0.74940   0.44858   -0.131435           
         C         C         0.43694   0.77213   0.56088   -0.121158           
         C         C         0.63247   0.78774   0.52734   -0.096939           
         C         C         0.36642   0.80962   0.48177   -0.103979           
         C         C         0.77814   0.94892   0.78235   -0.134855           
         C         C         0.22470   0.97514   0.22458   -0.164023           
         C         C         0.83038   0.99475   0.85816   -0.139887           
         C         C         0.16970   0.02015   0.14802   -0.127934           
         C         C         0.93351   0.94005   0.92485   0.055078  
         C         C         0.07883   0.94947   0.08162   0.058475  
         C         C         0.98011   0.83177   0.91301   -0.130213           
         C         C         0.04757   0.82846   0.09474   -0.130342           
         C         C         0.92934   0.78719   0.83654   -0.173762           
         C         C         0.10020   0.78439   0.17170   -0.177080           
         C         C         0.81268   0.22188   0.05808   0.210430  
         C         C         0.17803   0.22366   0.93613   0.203973  
         N         N         0.75101   0.27295   0.07817   -0.276340           
         N         N         0.23869   0.27382   0.91574   -0.275348           
         C         C         0.79688   0.33378   0.14435   0.078764  
         C         C         0.19323   0.32032   0.84630   0.072773  
         C         C         0.72619   0.39401   0.15886   0.045335  
         C         C         0.26557   0.37894   0.83374   0.047890  
         C         C         0.76868   0.47991   0.22326   -0.132952           
         C         C         0.22335   0.46036   0.76774   -0.132646           
         C         C         0.69601   0.55218   0.22805   -0.115996           
         C         C         0.29633   0.53248   0.76451   -0.128045           
         C         C         0.57983   0.53769   0.16907   0.054255  
         C         C         0.41241   0.52309   0.82701   0.028152  
         C         C         0.53781   0.44335   0.10799   -0.111426           
         C         C         0.45475   0.43208   0.88966   -0.099716           
         C         C         0.60970   0.37312   0.10312   -0.109835           
         C         C         0.38263   0.36146   0.89288   -0.107753           
         C         C         0.90114   0.29022   0.07078   -0.185409           
         C         C         0.07431   0.27550   0.90921   -0.179366           
         C         C         0.95712   0.23239   0.04729   -0.131788           
         C         C         0.02218   0.21867   0.93509   -0.128477           
         C         C         0.92791   0.10480   0.01161   0.049715  
         C         C         0.07057   0.10796   0.98749   0.053942  
         C         C         0.83779   0.03866   0.99765   -0.126640           
         C         C         0.17461   0.05791   0.01469   -0.131358           
         C         C         0.77948   0.09671   0.01855   -0.155485           
         C         C         0.22863   0.11629   0.99117   -0.149096           
         C         C         0.18326   0.22550   0.43818   0.206926  
         C         C         0.81826   0.22351   0.56060   0.207969  
         N         N         0.24306   0.27513   0.41704   -0.269413           
         N         N         0.75637   0.27456   0.58045   -0.276418           
         C         C         0.19703   0.32555   0.34835   0.070663  
         C         C         0.80202   0.33010   0.64793   0.076983  
         C         C         0.26909   0.38423   0.33554   0.048669  
         C         C         0.73076   0.39091   0.66166   0.045006  
         C         C         0.22640   0.46334   0.26867   -0.135205           
         C         C         0.77316   0.47658   0.72611   -0.132136           
         C         C         0.29916   0.53606   0.26543   -0.128000           
         C         C         0.70043   0.54821   0.73101   -0.115683           
         C         C         0.41511   0.52936   0.32846   0.032024  
         C         C         0.58430   0.53393   0.67189   0.053129  
         C         C         0.45807   0.44014   0.39196   -0.101550           
         C         C         0.54234   0.44110   0.61019   -0.112036           
         C         C         0.38616   0.36925   0.39532   -0.105690           
         C         C         0.61421   0.37089   0.60531   -0.107003           
         C         C         0.22717   0.10829   0.48592   -0.153883           
         C         C         0.77775   0.10619   0.51362   -0.152473           
         C         C         0.17281   0.05096   0.50935   -0.126063           
         C         C         0.83486   0.04872   0.49153   -0.128564           
         C         C         0.07534   0.11066   0.48923   0.050540  
         C         C         0.93183   0.10806   0.51256   0.051391  
         C         C         0.03495   0.23128   0.44518   -0.129876           
         C         C         0.96956   0.22775   0.55676   -0.130296           
         C         C         0.08736   0.28793   0.41938   -0.182540           
         C         C         0.91413   0.28492   0.58072   -0.184460           
         H         H         0.51001   0.77114   0.23273   0.349211  
         H         H         0.41018   0.78314   0.79677   0.353565  
         H         H         0.41100   0.78859   0.29765   0.354804  
         H         H         0.51314   0.76591   0.73511   0.349145  
         H         H         0.37518   0.57708   0.18256   0.060240  
         H         H         0.62020   0.57613   0.81791   0.060876  
         H         H         0.47411   0.16388   0.30816   0.148712  
         H         H         0.54231   0.16088   0.69815   0.151188  
         H         H         0.38484   0.14687   0.20307   0.144729  
         H         H         0.63403   0.15215   0.80364   0.145747  
         H         H         0.36157   0.28199   0.24514   0.140018  
         H         H         0.64658   0.28660   0.75631   0.142705  
         H         H         0.54236   0.16322   0.19964   0.148795  
         H         H         0.47367   0.15587   0.80599   0.149384  
         H         H         0.63354   0.15551   0.30500   0.146224  
         H         H         0.38449   0.14277   0.70062   0.144615  
         H         H         0.64682   0.28871   0.25730   0.142671  
         H         H         0.36151   0.27528   0.74412   0.140344  
         H         H         0.62039   0.58111   0.31684   0.061169  
         H         H         0.37624   0.57443   0.68208   0.060472  
         H         H         0.10966   0.72128   0.79539   0.055452  
         H         H         0.90471   0.74254   0.19833   0.056341  
         H         H         0.15174   0.58084   0.90613   0.094665  
         H         H         0.86400   0.62168   0.08196   0.093265  
         H         H         0.27911   0.51743   0.04828   0.118345  
         H         H         0.72937   0.54751   0.94199   0.117527  
         H         H         0.50567   0.83058   0.10083   0.117547  
         H         H         0.46411   0.76617   0.91227   0.094773  
         H         H         0.37838   0.89198   0.95651   0.109247  
         H         H         0.60070   0.83834   0.05276   0.106296  
         H         H         0.06145   0.69524   0.67535   0.094770  
         H         H         0.95667   0.69722   0.32697   0.094325  
         H         H         0.96794   0.77884   0.54021   0.107412  
         H         H         0.04863   0.77860   0.46219   0.104400  
         H         H         0.20460   0.10170   0.63885   0.102851  
         H         H         0.80382   0.10073   0.36313   0.100247  
         H         H         0.30035   0.01590   0.77417   0.115682  
         H         H         0.70846   0.01484   0.22794   0.120037  
         H         H         0.90603   0.73863   0.70069   0.054965  
         H         H         0.11019   0.73914   0.29996   0.057830  
         H         H         0.86281   0.61097   0.58497   0.092037  
         H         H         0.15259   0.59211   0.40925   0.092319  
         H         H         0.72833   0.54196   0.44417   0.117932  
         H         H         0.28009   0.52214   0.55037   0.117755  
         H         H         0.47029   0.78439   0.41193   0.092046  
         H         H         0.51746   0.82069   0.60448   0.117454  
         H         H         0.60742   0.85438   0.55259   0.107770  
         H         H         0.38914   0.88940   0.46126   0.109065  
         H         H         0.69876   0.99250   0.73085   0.119353  
         H         H         0.29340   0.03209   0.27574   0.118215  
         H         H         0.79277   0.07816   0.86588   0.097721  
         H         H         0.19506   0.11451   0.13939   0.104223  
         H         H         0.05966   0.78618   0.96350   0.105126  
         H         H         0.97806   0.77152   0.04405   0.107303  
         H         H         0.96847   0.70563   0.82869   0.094047  
         H         H         0.07337   0.69155   0.18062   0.095853  
         H         H         0.88854   0.34412   0.19094   0.056464  
         H         H         0.10205   0.31973   0.79595   0.059850  
         H         H         0.85888   0.49410   0.26871   0.088297  
         H         H         0.13295   0.47130   0.71992   0.090734  
         H         H         0.72898   0.62423   0.27563   0.112091  
         H         H         0.26259   0.60002   0.71482   0.104990  
         H         H         0.44803   0.42727   0.06300   0.107998  
         H         H         0.54494   0.41898   0.93674   0.112653  
         H         H         0.57812   0.30273   0.05515   0.105675  
         H         H         0.41428   0.29375   0.94205   0.109041  
         H         H         0.92422   0.38989   0.09789   0.095460  
         H         H         0.03463   0.36072   0.86815   0.095308  
         H         H         0.02620   0.28611   0.05863   0.106759  
         H         H         0.94090   0.25819   0.91221   0.111228  
         H         H         0.81364   0.93908   0.97059   0.105444  
         H         H         0.21342   0.97061   0.05405   0.106402  
         H         H         0.70958   0.04464   0.00694   0.118285  
         H         H         0.30956   0.07775   0.01306   0.116578  
         H         H         0.10552   0.32880   0.29886   0.061736  
         H         H         0.89369   0.33514   0.69636   0.055357  
         H         H         0.13600   0.47154   0.22021   0.093264  
         H         H         0.86329   0.49203   0.77108   0.088468  
         H         H         0.26527   0.60233   0.21524   0.103914  
         H         H         0.73320   0.62007   0.77861   0.112683  
         H         H         0.54823   0.42908   0.43970   0.112169  
         H         H         0.45248   0.42658   0.56474   0.108769  
         H         H         0.41781   0.30373   0.44528   0.106675  
         H         H         0.58284   0.30136   0.55700   0.105551  
         H         H         0.30230   0.06108   0.50171   0.115252  
         H         H         0.70276   0.05969   0.49704   0.118021  
         H         H         0.20565   0.95673   0.54284   0.105629  
         H         H         0.80416   0.95508   0.45801   0.107843  
         H         H         0.95964   0.27960   0.42868   0.109823  
         H         H         0.04484   0.27517   0.57436   0.107352  
         H         H         0.05469   0.38151   0.38513   0.098134  
         H         H         0.94431   0.37824   0.61468   0.093725  
         C         C         0.00489   0.02717   0.50096   0.017564  
         C         C         0.00282   0.02420   0.00153   0.018309 

