
##########################################################################
#               Crystallographic Information Format file
#               Produced by PyCifRW module
#
#  This is a CIF file.  CIF has been adopted by the International
#  Union of Crystallography as the standard for data archiving and
#  transmission.
#
#  For information on this file format, follow the CIF links at
#  http://www.iucr.org
##########################################################################

data_image0

_cell_length_a                          24.583
_cell_length_b                          23.5023
_cell_length_c                          6.8034
_cell_angle_alpha                       89.3854
_cell_angle_beta                        90.6715
_cell_angle_gamma                       89.781
_symmetry_space_group_name_H-M          'P 1'
_space_group_name_Hall                  'P 1'
loop_
  _atom_site_type_symbol
  _atom_site_label
  _atom_site_fract_x
  _atom_site_fract_y
  _atom_site_fract_z
  _atom_site_charge
         C         C         0.41683   0.85319   0.46809   -0.171155           
         C         C         0.55766   0.15321   0.50228   -0.171091           
         C         C         0.13914   0.41367   0.47651   -0.182105           
         C         C         0.86438   0.57892   0.47112   -0.169105           
         C         C         0.60015   0.82784   0.40084   -0.168276           
         C         C         0.38847   0.15650   0.40480   -0.180436           
         C         C         0.84138   0.38526   0.40364   -0.194307           
         C         C         0.16482   0.59191   0.39466   -0.162407           
         C         C         0.08346   0.63017   0.53976   -0.186062           
         C         C         0.92420   0.33877   0.51393   -0.170985           
         C         C         0.35582   0.06846   0.54629   -0.167554           
         C         C         0.63865   0.91461   0.52803   -0.189330           
         C         C         0.90200   0.66371   0.61608   -0.187996           
         C         C         0.10074   0.32580   0.59756   -0.160511           
         C         C         0.64276   0.10538   0.57604   -0.194723           
         C         C         0.33446   0.88017   0.63414   -0.182997           
         C         C         0.44686   0.88644   0.59724   -0.126885           
         C         C         0.53133   0.11602   0.62923   -0.124411           
         C         C         0.10702   0.44371   0.60709   -0.125931           
         C         C         0.89552   0.54567   0.60025   -0.127246           
         C         C         0.56833   0.85991   0.26925   -0.130702           
         C         C         0.41986   0.12550   0.27399   -0.133609           
         C         C         0.87160   0.42001   0.27783   -0.137698           
         C         C         0.13283   0.56052   0.26499   -0.133149           
         C         C         0.05195   0.59816   0.41087   -0.128978           
         C         C         0.95387   0.37473   0.39240   -0.125777           
         C         C         0.38776   0.03810   0.41606   -0.126279           
         C         C         0.60554   0.94615   0.39959   -0.130733           
         C         C         0.93221   0.62974   0.74775   -0.134955           
         C         C         0.06926   0.35638   0.72965   -0.134033           
         C         C         0.61601   0.06962   0.70879   -0.138300           
         C         C         0.36528   0.91290   0.76428   -0.131109           
         C         C         0.23865   0.71620   0.95196   -0.101959           
         C         C         0.74084   0.30482   0.04110   -0.124591           
         C         C         0.33123   0.28601   0.98027   -0.135711           
         C         C         0.72928   0.77063   0.98296   -0.104135           
         C         C         0.76192   0.74187   0.11872   -0.108166           
         C         C         0.29986   0.31841   0.10682   -0.137608           
         C         C         0.70850   0.26834   0.15105   -0.111813           
         C         C         0.26900   0.74737   0.08477   -0.101977           
         C         C         0.21028   0.82940   0.02569   -0.137429           
         C         C         0.73129   0.19111   0.93128   -0.125586           
         C         C         0.22291   0.25595   0.04830   -0.103230           
         C         C         0.84256   0.77840   0.95794   -0.135634           
         C         C         0.80970   0.80718   0.82091   -0.134599           
         C         C         0.25402   0.22385   0.92245   -0.102743           
         C         C         0.76365   0.22757   0.82155   -0.107951           
         C         C         0.17982   0.79800   0.89137   -0.136974           
         H         H         0.43678   0.82939   0.35300   0.119041  
         H         H         0.53499   0.18613   0.42272   0.117945  
         H         H         0.16517   0.43682   0.37531   0.104273  
         H         H         0.83736   0.55933   0.36388   0.117697  
         H         H         0.59797   0.78163   0.40251   0.121370  
         H         H         0.38696   0.20269   0.39396   0.108028  
         H         H         0.79722   0.38834   0.40564   0.109118  
         H         H         0.20896   0.58982   0.38956   0.119429  
         H         H         0.06388   0.65592   0.65069   0.104383  
         H         H         0.94465   0.30670   0.60481   0.119265  
         H         H         0.33037   0.04635   0.65198   0.115795  
         H         H         0.66539   0.93596   0.63209   0.105810  
         H         H         0.90300   0.70986   0.62639   0.103512  
         H         H         0.09857   0.27963   0.59167   0.118642  
         H         H         0.68652   0.10189   0.55659   0.108704  
         H         H         0.29082   0.87560   0.65390   0.108619  
         H         H         0.49084   0.88771   0.58126   0.101511  
         H         H         0.48745   0.12012   0.64360   0.098958  
         H         H         0.10944   0.48993   0.60504   0.100159  
         H         H         0.89238   0.49958   0.59051   0.100328  
         H         H         0.54152   0.83763   0.16814   0.107922  
         H         H         0.44366   0.14857   0.16600   0.103027  
         H         H         0.85004   0.45097   0.18567   0.102408  
         H         H         0.15288   0.53364   0.15868   0.106870  
         H         H         0.00785   0.60055   0.42214   0.100009  
         H         H         0.99800   0.37057   0.39372   0.101344  
         H         H         0.38686   0.99180   0.42367   0.099881  
         H         H         0.60730   0.99237   0.40546   0.097439  
         H         H         0.95739   0.65059   0.85782   0.099753  
         H         H         0.04239   0.33315   0.82726   0.107754  
         H         H         0.63966   0.03776   0.78988   0.100908  
         H         H         0.34440   0.93452   0.88227   0.103028  
         H         H         0.24863   0.67214   0.92042   0.115837  
         H         H         0.74515   0.34920   0.08298   0.107285  
         H         H         0.37335   0.29752   0.95262   0.106301  
         H         H         0.68514   0.76900   0.99076   0.116728  
         H         H         0.74444   0.71640   0.23645   0.118556  
         H         H         0.31720   0.35541   0.17908   0.106653  
         H         H         0.68681   0.28289   0.27978   0.117965  
         H         H         0.30406   0.72894   0.16136   0.118354  
         H         H         0.19962   0.87350   0.05512   0.106931  
         H         H         0.72677   0.14679   0.88907   0.105304  
         H         H         0.18064   0.24551   0.07673   0.115328  
         H         H         0.88670   0.78119   0.94957   0.105949  
         H         H         0.82788   0.83257   0.70422   0.108885  
         H         H         0.23741   0.18697   0.84781   0.116631  
         H         H         0.78536   0.21301   0.69296   0.116967  
         H         H         0.14517   0.81743   0.81478   0.105155  
         H         H         0.02165   0.38511   0.08969   0.096437  
         H         H         0.98012   0.59384   0.10439   0.090064  
         H         H         0.59361   0.02164   0.09106   0.089522  
         H         H         0.39745   0.96544   0.10940   0.091680  
         H         H         0.97021   0.39001   0.90539   0.094206  
         H         H         0.03026   0.59321   0.91900   0.090402  
         H         H         0.39324   0.01956   0.92555   0.093588  
         H         H         0.59147   0.96912   0.90513   0.091667  
         H         H         0.46673   0.09832   0.92435   0.090622  
         H         H         0.52006   0.89253   0.90889   0.096897  
         H         H         0.90018   0.47049   0.91485   0.092323  
         H         H         0.10023   0.51254   0.91403   0.094732  
         H         H         0.51902   0.09664   0.10571   0.094004  
         H         H         0.47078   0.89070   0.09715   0.090679  
         H         H         0.09818   0.45805   0.09655   0.094175  
         H         H         0.90448   0.52229   0.10198   0.090636  
         C         C         0.42186   0.91821   0.74555   0.050535  
         C         C         0.55977   0.07386   0.73788   0.049493  
         C         C         0.07111   0.41604   0.73602   0.054932  
         C         C         0.93049   0.57010   0.74128   0.051250  
         C         C         0.56968   0.91971   0.26691   0.050189  
         C         C         0.42136   0.06583   0.27920   0.053875  
         C         C         0.92845   0.41567   0.26919   0.047621  
         C         C         0.07574   0.56223   0.27172   0.055203  
         N         N         0.33134   0.81802   0.34360   -0.269112           
         N         N         0.64012   0.18821   0.35250   -0.273214           
         N         N         0.16623   0.32044   0.33876   -0.283921           
         N         N         0.83436   0.67033   0.34572   -0.264617           
         N         N         0.66733   0.82176   0.66409   -0.273137           
         N         N         0.32448   0.15729   0.68124   -0.277542           
         N         N         0.83761   0.30502   0.63655   -0.270552           
         N         N         0.17471   0.65766   0.66198   -0.280889           
         C         C         0.28767   0.83810   0.26129   0.062301  
         C         C         0.67120   0.17111   0.21374   0.073222  
         C         C         0.21402   0.33636   0.28392   0.068114  
         C         C         0.85408   0.71036   0.23758   0.064386  
         C         C         0.71872   0.83190   0.68204   0.064198  
         C         C         0.34242   0.20355   0.75924   0.065230  
         C         C         0.80435   0.32351   0.76636   0.071527  
         C         C         0.16147   0.70875   0.71121   0.067811  
         C         C         0.96313   0.45307   0.13543   0.147542  
         C         C         0.03964   0.52626   0.13858   0.145077  
         C         C         0.53239   0.95602   0.13510   0.145799  
         C         C         0.45748   0.03149   0.14323   0.146235  
         C         C         0.03559   0.45146   0.87144   0.144753  
         C         C         0.96522   0.53174   0.87569   0.144739  
         C         C         0.45647   0.95630   0.87718   0.146275  
         C         C         0.52862   0.03433   0.87527   0.146291  
         H         H         0.27353   0.88183   0.28806   0.068334  
         H         H         0.67453   0.12575   0.17617   0.068465  
         H         H         0.23388   0.37454   0.34308   0.066768  
         H         H         0.89806   0.71898   0.23353   0.067300  
         H         H         0.73927   0.86242   0.58441   0.069455  
         H         H         0.38407   0.21883   0.73332   0.065227  
         H         H         0.80157   0.36903   0.80201   0.070577  
         H         H         0.12574   0.73059   0.64631   0.065351  
         C         C         0.61396   0.14816   0.47236   0.200480  
         C         C         0.35978   0.85115   0.47998   0.197703  
         C         C         0.86798   0.63868   0.47406   0.199570  
         C         C         0.13661   0.35382   0.46981   0.196054  
         C         C         0.35695   0.12836   0.54702   0.197871  
         C         C         0.63639   0.85474   0.53076   0.197918  
         C         C         0.14069   0.62768   0.53328   0.196691  
         C         C         0.86724   0.34379   0.52246   0.200741  
         C         C         0.76928   0.28483   0.87686   0.059267  
         C         C         0.19358   0.74109   0.85270   0.061735  
         C         C         0.75270   0.80284   0.82981   0.063783  
         C         C         0.30893   0.23800   0.88811   0.060093  
         C         C         0.24556   0.30347   0.14433   0.064188  
         C         C         0.81917   0.74442   0.10552   0.060211  
         C         C         0.25531   0.80456   0.12362   0.062100  
         C         C         0.70364   0.21085   0.09753   0.061172  
         C         C         0.99757   0.41516   -0.00063  -0.263240           
         C         C         0.00384   0.56596   0.00868   -0.259268           
         C         C         0.56617   0.99552   0.00075   -0.260854           
         C         C         0.42164   0.99304   0.01304   -0.261563           
         C         C         0.49283   0.06981   0.01302   -0.262044           
         C         C         0.49522   0.91923   0.00490   -0.261270           
         C         C         0.92871   0.49444   0.00772   -0.261021           
         C         C         0.07289   0.48707   0.00602   -0.262472           
         C         C         0.00204   0.48861   0.26395   -0.267457           
         C         C         0.49611   0.99321   0.26609   -0.265471           
         C         C         -0.00018  0.49232   0.74693   -0.266040           
         C         C         0.49127   0.99629   0.74950   -0.265382           
         H         H         0.97776   0.51511   0.36167   0.090516  
         H         H         0.02711   0.46037   0.35734   0.096171  
         H         H         0.47243   0.96537   0.36243   0.090580  
         H         H         0.52132   0.02015   0.36095   0.095961  
         H         H         0.02537   0.51859   0.65157   0.091682  
         H         H         0.97334   0.46706   0.65100   0.094905  
         H         H         0.51684   0.97156   0.65064   0.091687  
         H         H         0.46457   0.02303   0.65686   0.095459 

