
##########################################################################
#               Crystallographic Information Format file
#               Produced by PyCifRW module
#
#  This is a CIF file.  CIF has been adopted by the International
#  Union of Crystallography as the standard for data archiving and
#  transmission.
#
#  For information on this file format, follow the CIF links at
#  http://www.iucr.org
##########################################################################

data_image0

_cell_length_a                          19.4564
_cell_length_b                          15.9889
_cell_length_c                          10.931
_cell_angle_alpha                       90.2718
_cell_angle_beta                        93.8675
_cell_angle_gamma                       90.0419
_symmetry_space_group_name_H-M          'P 1'
_space_group_name_Hall                  'P 1'
loop_
  _atom_site_type_symbol
  _atom_site_label
  _atom_site_fract_x
  _atom_site_fract_y
  _atom_site_fract_z
  _atom_site_charge
         C         C         0.36150   0.79930   0.49601   -0.172856           
         C         C         0.32894   0.12172   0.54648   -0.173940           
         C         C         0.41854   0.84403   0.46275   -0.121882           
         C         C         0.38161   0.07139   0.50813   -0.110795           
         C         C         0.46501   0.83108   0.09543   -0.125840           
         C         C         0.42548   0.08095   0.15785   -0.126169           
         C         C         0.41175   0.78028   0.13063   -0.151453           
         C         C         0.37009   0.12758   0.19491   -0.154700           
         C         C         0.34242   0.80138   0.10120   0.198525  
         C         C         0.33719   0.18738   0.11679   0.200382  
         N         N         0.27996   0.22855   0.16053   -0.288027           
         N         N         0.29267   0.74508   0.13917   -0.295914           
         C         C         0.45118   0.09418   0.04216   0.062409  
         C         C         0.45146   0.90611   0.03100   0.064545  
         C         C         0.06579   0.59344   0.20720   0.068829  
         C         C         0.06511   0.40679   0.20145   0.075114  
         C         C         0.05236   0.66656   0.13818   -0.132877           
         C         C         0.08343   0.40940   0.07963   -0.136577           
         C         C         0.10597   0.71598   0.10111   -0.130782           
         C         C         0.13740   0.36009   0.04254   -0.126632           
         C         C         0.13537   0.57249   0.23792   -0.123749           
         C         C         0.10245   0.35391   0.28470   -0.139163           
         C         C         0.17659   0.31029   0.12682   0.058096  
         C         C         0.17513   0.69574   0.13414   0.056817  
         C         C         0.15849   0.30819   0.24945   -0.105536           
         C         C         0.18897   0.62261   0.20302   -0.112752           
         C         C         0.23497   0.26336   0.08461   0.067613  
         C         C         0.22919   0.75137   0.09688   0.060969  
         C         C         0.00722   0.54279   0.24685   -0.037523           
         C         C         0.00780   0.45706   0.24688   -0.023487           
         H         H         -0.00061  0.68423   0.11253   0.108886  
         H         H         0.05521   0.44952   0.01370   0.101080  
         H         H         0.15055   0.63108   0.44875   0.096184  
         H         H         0.09720   0.23117   0.54436   0.110497  
         H         H         0.14715   0.51637   0.29102   0.113392  
         H         H         0.08767   0.35142   0.37887   0.100044  
         H         H         0.18919   0.27014   0.31491   0.103594  
         H         H         0.24235   0.60635   0.22833   0.118785  
         H         H         0.33838   0.75309   0.43229   0.111803  
         H         H         0.27593   0.10079   0.52964   0.111247  
         H         H         0.43873   0.83293   0.37366   0.103850  
         H         H         0.36863   0.01334   0.45990   0.110257  
         H         H         0.51808   0.81281   0.11867   0.109685  
         H         H         0.44902   0.03363   0.21853   0.104485  
         H         H         0.42256   0.72244   0.18040   0.122564  
         H         H         0.35060   0.11833   0.28477   0.107336  
         C         C         0.86292   0.29988   0.24804   -0.110861           
         C         C         0.82389   0.61843   0.28323   -0.113496           
         C         C         0.91832   0.34654   0.21250   -0.136203           
         C         C         0.87875   0.56977   0.24947   -0.125512           
         C         C         0.93021   0.41277   0.41251   -0.131996           
         C         C         0.95878   0.66266   0.36123   -0.134336           
         C         C         0.87683   0.36288   0.45002   -0.122846           
         C         C         0.90379   0.70981   0.39860   -0.129348           
         C         C         0.84130   0.30756   0.36788   0.054237  
         C         C         0.83567   0.68945   0.35830   0.053815  
         C         C         0.77954   0.74369   0.39228   0.064230  
         C         C         0.78218   0.26107   0.40855   0.074976  
         C         C         0.94740   0.59135   0.28642   0.070283  
         C         C         0.95146   0.40564   0.29271   0.078464  
         C         C         0.56976   0.08704   0.45206   0.052708  
         C         C         0.56315   0.90238   0.44824   0.059417  
         C         C         0.55988   0.15712   0.37513   -0.121409           
         C         C         0.58296   0.90561   0.32702   -0.124599           
         C         C         0.61543   0.20209   0.33577   -0.171935           
         C         C         0.63374   0.85220   0.28812   -0.164803           
         C         C         0.59678   0.15497   0.02518   -0.123650           
         C         C         0.63786   0.93372   0.99341   -0.111577           
         C         C         0.66923   0.79803   0.37138   0.200440  
         C         C         0.68329   0.17998   0.37522   0.207728  
         C         C         0.65016   0.79511   0.49325   -0.182818           
         C         C         0.69379   0.11059   0.45295   -0.187325           
         N         N         0.72121   0.74671   0.32884   -0.276907           
         N         N         0.73808   0.22568   0.33158   -0.279796           
         C         C         0.50902   0.04082   0.49256   -0.036700           
         C         C         0.50737   0.95499   0.49431   -0.024185           
         H         H         0.50766   0.17580   0.34542   0.110957  
         H         H         0.55777   0.94951   0.26272   0.103509  
         H         H         0.60716   0.25601   0.27628   0.124502  
         H         H         0.64786   0.85309   0.19358   0.107671  
         H         H         0.58120   0.16011   0.11848   0.099397  
         H         H         0.64669   0.98729   0.05403   0.112693  
         H         H         0.74604   0.90485   0.98995   0.116496  
         H         H         0.67714   0.24745   0.05270   0.112165  
         H         H         0.83528   0.25702   0.18452   0.102930  
         H         H         0.77111   0.60287   0.25191   0.119852  
         H         H         0.93540   0.33983   0.12021   0.100496  
         H         H         0.86874   0.51491   0.19180   0.113863  
         H         H         0.95554   0.45746   0.47609   0.103341  
         H         H         0.01127   0.68073   0.39035   0.110280  
         H         H         0.91550   0.23138   0.95033   0.111891  
         H         H         0.85985   0.63045   0.04759   0.100818  
         H         H         0.21525   0.20574   0.52778   0.064196  
         H         H         0.23845   0.73169   0.48091   0.070175  
         H         H         0.79032   0.78439   0.47283   0.073175  
         H         H         0.77586   0.26054   0.50791   0.077486  
         C         C         0.32853   0.87664   0.03695   -0.171404           
         C         C         0.36483   0.20342   0.00314   -0.173020           
         C         C         0.38180   0.92731   0.00256   -0.112811           
         C         C         0.42122   0.15814   0.96783   -0.121386           
         C         C         0.42505   0.91733   0.65715   -0.130310           
         C         C         0.46594   0.16979   0.59323   -0.125549           
         C         C         0.36890   0.87132   0.69187   -0.152088           
         C         C         0.41336   0.22063   0.63143   -0.153601           
         C         C         0.33484   0.81351   0.61120   0.198973  
         C         C         0.34374   0.19835   0.60758   0.200737  
         N         N         0.29423   0.25437   0.64767   -0.294279           
         N         N         0.27756   0.77287   0.65516   -0.290376           
         C         C         0.45151   0.09371   0.53094   0.062744  
         C         C         0.45004   0.90564   0.54057   0.066497  
         C         C         0.06545   0.59300   0.70529   0.074189  
         C         C         0.06700   0.40746   0.71085   0.070385  
         C         C         0.08344   0.58701   0.58342   -0.134872           
         C         C         0.05419   0.33528   0.63842   -0.134411           
         C         C         0.13730   0.63504   0.54372   -0.128959           
         C         C         0.10817   0.28629   0.60138   -0.130181           
         C         C         0.10248   0.64857   0.78585   -0.137908           
         C         C         0.13629   0.42797   0.74527   -0.124681           
         C         C         0.17704   0.30587   0.63847   0.055381  
         C         C         0.17601   0.68786   0.62523   0.060251  
         C         C         0.19019   0.37788   0.71116   -0.110544           
         C         C         0.15787   0.69392   0.74760   -0.107918           
         C         C         0.23151   0.25084   0.60042   0.063964  
         C         C         0.23416   0.73356   0.58078   0.067189  
         C         C         0.00865   0.54315   0.75242   -0.023776           
         C         C         0.00809   0.45739   0.75105   -0.038042           
         H         H         0.05493   0.54506   0.51982   0.101106  
         H         H         0.00134   0.31804   0.61039   0.108478  
         H         H         0.09453   0.77178   0.04666   0.109922  
         H         H         0.15042   0.36081   0.94732   0.094785  
         H         H         0.08824   0.65366   0.88020   0.100077  
         H         H         0.14762   0.48330   0.80123   0.114830  
         H         H         0.24332   0.39338   0.73999   0.119155  
         H         H         0.18825   0.73461   0.81043   0.104258  
         H         H         0.27578   0.89603   0.01299   0.110921  
         H         H         0.34272   0.25158   0.94244   0.112207  
         H         H         0.36966   0.98439   0.95198   0.111980  
         H         H         0.44183   0.17089   0.87966   0.104290  
         H         H         0.44956   0.96284   0.72042   0.104891  
         H         H         0.51927   0.18861   0.61271   0.110108  
         H         H         0.34962   0.87908   0.78224   0.106726  
         H         H         0.42526   0.27921   0.67926   0.123102  
         C         C         0.82498   0.37844   0.78211   -0.114127           
         C         C         0.86521   0.70148   0.75525   -0.110856           
         C         C         0.87957   0.42856   0.75103   -0.124995           
         C         C         0.92070   0.65480   0.71994   -0.136230           
         C         C         0.96004   0.33554   0.85989   -0.133529           
         C         C         0.93008   0.58639   0.91761   -0.130287           
         C         C         0.90534   0.28671   0.89421   -0.128280           
         C         C         0.87632   0.63590   0.95486   -0.128496           
         C         C         0.83710   0.30640   0.85398   0.053211  
         C         C         0.84190   0.69207   0.87356   0.053547  
         C         C         0.78217   0.73785   0.91314   0.074782  
         C         C         0.78105   0.25127   0.88593   0.065115  
         C         C         0.95251   0.59455   0.79887   0.077987  
         C         C         0.94834   0.40775   0.78813   0.070528  
         C         C         0.56336   0.09625   0.94578   0.059721  
         C         C         0.56994   0.91165   0.95396   0.053477  
         C         C         0.58316   0.09111   0.82458   -0.122873           
         C         C         0.56019   0.84152   0.87609   -0.123349           
         C         C         0.63409   0.14383   0.78454   -0.167060           
         C         C         0.61584   0.79660   0.83687   -0.171332           
         C         C         0.63783   0.06470   0.48961   -0.110617           
         C         C         0.59645   0.84503   0.52920   -0.121452           
         C         C         0.68351   0.81835   0.87838   0.207511  
         C         C         0.66979   0.19918   0.86673   0.200986  
         C         C         0.69384   0.88741   0.95776   -0.185647           
         C         C         0.65063   0.20415   0.98842   -0.182543           
         N         N         0.73861   0.77285   0.83534   -0.279940           
         N         N         0.72208   0.25001   0.82442   -0.273723           
         C         C         0.50783   0.04443   0.99411   -0.024210           
         C         C         0.50932   0.95851   0.99346   -0.037390           
         H         H         0.55796   0.04621   0.76113   0.102893  
         H         H         0.50809   0.82303   0.84482   0.111002  
         H         H         0.64813   0.14140   0.68997   0.107353  
         H         H         0.60774   0.74306   0.77580   0.125002  
         H         H         0.64691   0.01132   0.54980   0.112276  
         H         H         0.58099   0.84159   0.62279   0.098656  
         H         H         0.67662   0.75264   0.55822   0.111028  
         H         H         0.74606   0.09267   0.48355   0.116637  
         H         H         0.77214   0.39362   0.75090   0.119767  
         H         H         0.83898   0.74582   0.69301   0.103353  
         H         H         0.86929   0.48403   0.69554   0.114572  
         H         H         0.93915   0.66244   0.62887   0.101230  
         H         H         0.01256   0.31812   0.88947   0.109352  
         H         H         0.95496   0.54151   0.98076   0.102641  
         H         H         0.86137   0.36768   0.54356   0.096362  
         H         H         0.91356   0.76442   0.45722   0.112646  
         H         H         0.23814   0.25993   0.98451   0.070810  
         H         H         0.21190   0.79955   0.03021   0.066478  
         H         H         0.77478   0.73817   0.01213   0.077362  
         H         H         0.79229   0.20896   0.96398   0.071400 

