
##########################################################################
#               Crystallographic Information Format file
#               Produced by PyCifRW module
#
#  This is a CIF file.  CIF has been adopted by the International
#  Union of Crystallography as the standard for data archiving and
#  transmission.
#
#  For information on this file format, follow the CIF links at
#  http://www.iucr.org
##########################################################################

data_image0

_cell_length_a                          29.1144
_cell_length_b                          29.0939
_cell_length_c                          7.57421
_cell_angle_alpha                       89.6819
_cell_angle_beta                        90.2708
_cell_angle_gamma                       91.5953
_symmetry_space_group_name_H-M          'P 1'
_space_group_name_Hall                  'P 1'
loop_
  _atom_site_type_symbol
  _atom_site_label
  _atom_site_fract_x
  _atom_site_fract_y
  _atom_site_fract_z
  _atom_site_charge
         C         C         0.98229   0.04502   0.11319   0.077409  
         C         C         0.01356   0.96909   0.11853   0.078823  
         C         C         0.03545   0.02286   0.85730   0.081458  
         C         C         0.95914   0.99016   0.86128   0.075813  
         C         C         0.51553   0.03409   0.61865   0.080205  
         C         C         0.48264   0.95705   0.61407   0.078521  
         C         C         0.46237   0.00952   0.87574   0.072584  
         C         C         0.53817   0.97873   0.86927   0.080852  
         C         C         0.48950   0.53640   0.63073   0.075414  
         C         C         0.51720   0.46016   0.62880   0.078081  
         C         C         0.54234   0.51375   0.37459   0.076981  
         C         C         0.46377   0.48414   0.37304   0.082253  
         C         C         0.00700   0.54375   0.12411   0.077872  
         C         C         0.99004   0.46252   0.11546   0.080489  
         C         C         0.95841   0.50907   0.37431   0.079652  
         C         C         0.03844   0.49280   0.37579   0.081512  
         C         C         0.94027   0.04010   0.20378   -0.125906           
         C         C         0.05542   0.97453   0.21173   -0.126771           
         C         C         0.03061   0.06369   0.75827   -0.122091           
         C         C         0.96214   0.94816   0.77029   -0.135298           
         C         C         0.55544   0.02988   0.51555   -0.124521           
         C         C         0.44177   0.96307   0.51705   -0.124176           
         C         C         0.46980   0.04890   0.98158   -0.131649           
         C         C         0.53176   0.93771   0.96754   -0.124320           
         C         C         0.44713   0.53350   0.72048   -0.134509           
         C         C         0.55966   0.46353   0.71920   -0.134790           
         C         C         0.54193   0.55682   0.28895   -0.126661           
         C         C         0.46479   0.44203   0.28239   -0.127462           
         C         C         0.04998   0.55138   0.04277   -0.136747           
         C         C         0.94723   0.45686   0.02956   -0.135045           
         C         C         0.95509   0.55138   0.46244   -0.135101           
         C         C         0.04315   0.44869   0.45044   -0.138129           
         C         C         0.92675   0.07279   0.32496   -0.129670           
         C         C         0.06890   0.94224   0.33693   -0.123807           
         C         C         0.06253   0.07687   0.62972   -0.121858           
         C         C         0.93152   0.93674   0.63494   -0.116997           
         C         C         0.56881   0.06395   0.39520   -0.118606           
         C         C         0.42697   0.93129   0.39067   -0.124811           
         C         C         0.43909   0.05996   0.11409   -0.117980           
         C         C         0.56408   0.92403   0.09166   -0.120944           
         C         C         0.43738   0.56383   0.85555   -0.113892           
         C         C         0.56976   0.43365   0.85669   -0.112315           
         C         C         0.57604   0.56983   0.16913   -0.128344           
         C         C         0.43066   0.42956   0.16099   -0.123159           
         C         C         0.05590   0.58460   0.91205   -0.111668           
         C         C         0.94109   0.42504   0.89532   -0.106902           
         C         C         0.92288   0.55704   0.59369   -0.100693           
         C         C         0.07467   0.44093   0.58422   -0.106165           
         C         C         0.95530   0.11147   0.36203   0.041073  
         C         C         0.04055   0.90342   0.37597   0.037232  
         C         C         0.10054   0.04932   0.59439   0.029641  
         C         C         0.89719   0.96740   0.58387   0.046098  
         C         C         0.54236   0.10351   0.37289   0.029569  
         C         C         0.45310   0.89242   0.35391   0.034106  
         C         C         0.39999   0.03160   0.14786   0.040921  
         C         C         0.60399   0.95138   0.12361   0.032303  
         C         C         0.47010   0.59768   0.90862   0.044912  
         C         C         0.53728   0.39975   0.91121   0.044656  
         C         C         0.61167   0.53983   0.12894   0.041077  
         C         C         0.39417   0.45910   0.12466   0.034678  
         C         C         0.01871   0.61105   0.85548   0.045824  
         C         C         0.97777   0.39818   0.83956   0.045325  
         C         C         0.89314   0.52031   0.64389   0.045918  
         C         C         0.10184   0.47739   0.65365   0.046529  
         C         C         0.99720   0.11621   0.27161   -0.114774           
         C         C         0.99856   0.89858   0.28465   -0.114822           
         C         C         0.10490   0.00850   0.69240   -0.112231           
         C         C         0.89353   0.00857   0.67814   -0.106861           
         C         C         0.50232   0.10725   0.47407   -0.118425           
         C         C         0.49404   0.88677   0.44957   -0.114081           
         C         C         0.39261   0.99272   0.04098   -0.109675           
         C         C         0.61005   0.99245   0.02724   -0.115174           
         C         C         0.51201   0.60074   0.81766   -0.107640           
         C         C         0.49564   0.39565   0.81749   -0.107373           
         C         C         0.61190   0.49682   0.21391   -0.116452           
         C         C         0.39346   0.50123   0.21434   -0.114839           
         C         C         0.97635   0.60475   0.94152   -0.109957           
         C         C         0.01997   0.40279   0.92899   -0.110817           
         C         C         0.89542   0.47861   0.55226   -0.111774           
         C         C         0.09814   0.52111   0.57551   -0.108818           
         C         C         0.01076   0.08328   0.15100   -0.135084           
         C         C         0.98508   0.93101   0.15996   -0.131471           
         C         C         0.07265   0.99521   0.81931   -0.136938           
         C         C         0.92416   0.01986   0.81335   -0.141680           
         C         C         0.48890   0.07283   0.59317   -0.128558           
         C         C         0.50874   0.91865   0.57596   -0.135195           
         C         C         0.42342   0.98165   0.90882   -0.137221           
         C         C         0.57752   0.00608   0.90335   -0.132258           
         C         C         0.52162   0.57044   0.68223   -0.141728           
         C         C         0.48568   0.42543   0.67920   -0.140357           
         C         C         0.57747   0.48381   0.33267   -0.127868           
         C         C         0.42799   0.51377   0.33408   -0.130612           
         C         C         0.97057   0.57144   0.07270   -0.132738           
         C         C         0.02603   0.43474   0.06349   -0.136658           
         C         C         0.92797   0.47299   0.42058   -0.140916           
         C         C         0.06695   0.52868   0.43906   -0.140453           
         C         C         0.94500   0.14506   0.49761   0.063431  
         C         C         0.05086   0.86953   0.51318   0.065185  
         C         C         0.13446   0.05909   0.45644   0.066075  
         C         C         0.86780   0.96091   0.42993   0.065785  
         C         C         0.55295   0.13919   0.24155   0.063217  
         C         C         0.44167   0.85912   0.21566   0.063545  
         C         C         0.36888   0.03774   0.29572   0.066584  
         C         C         0.63788   0.94048   0.25914   0.062116  
         C         C         0.46418   0.62733   0.06031   0.069527  
         C         C         0.54281   0.37131   0.06752   0.067237  
         C         C         0.64634   0.55022   0.99474   0.071161  
         C         C         0.35880   0.44944   0.99096   0.067255  
         C         C         0.02185   0.64114   0.70151   0.072494  
         C         C         0.97440   0.36905   0.68456   0.076492  
         C         C         0.86293   0.52390   0.79476   0.071740  
         C         C         0.13038   0.47199   0.81013   0.070023  
         N         N         0.91143   0.14080   0.60857   -0.252452           
         N         N         0.08517   0.87238   0.62214   -0.247621           
         N         N         0.13296   0.09250   0.34323   -0.250775           
         N         N         0.86843   0.92557   0.32661   -0.274701           
         N         N         0.58509   0.13637   0.12550   -0.240377           
         N         N         0.40830   0.86242   0.10305   -0.248283           
         N         N         0.37244   0.07050   0.41083   -0.273263           
         N         N         0.63358   0.90664   0.36954   -0.244177           
         N         N         0.42762   0.62745   0.15715   -0.275058           
         N         N         0.57925   0.37125   0.16650   -0.276493           
         N         N         0.64496   0.58500   0.88805   -0.250348           
         N         N         0.35983   0.41573   0.88075   -0.244793           
         N         N         0.05888   0.64563   0.60828   -0.272202           
         N         N         0.93711   0.36443   0.59188   -0.272898           
         N         N         0.86314   0.56036   0.89215   -0.274537           
         N         N         0.13377   0.43346   0.89538   -0.268611           
         C         C         0.90907   0.17577   0.73600   0.090605  
         C         C         0.08700   0.83729   0.75152   0.091627  
         C         C         0.16908   0.09485   0.21972   0.093238  
         C         C         0.83746   0.92333   0.18422   0.093125  
         C         C         0.58919   0.17246   0.00175   0.091786  
         C         C         0.40454   0.82668   0.97838   0.091321  
         C         C         0.33994   0.07239   0.54729   0.091584  
         C         C         0.66903   0.90306   0.49552   0.092597  
         C         C         0.42585   0.65856   0.29769   0.092810  
         C         C         0.57991   0.34071   0.31053   0.091304  
         C         C         0.67960   0.58763   0.75876   0.090164  
         C         C         0.32428   0.41305   0.75369   0.092260  
         C         C         0.06064   0.67520   0.46200   0.095220  
         C         C         0.93544   0.33580   0.44397   0.091378  
         C         C         0.83445   0.56353   0.03889   0.087591  
         C         C         0.16272   0.43127   0.04344   0.089613  
         C         C         0.91456   0.22276   0.69475   -0.163005           
         C         C         0.08452   0.79017   0.71242   -0.165727           
         C         C         0.21563   0.09376   0.26824   -0.164678           
         C         C         0.79540   0.94598   0.18031   -0.157241           
         C         C         0.59403   0.21902   0.04717   -0.165953           
         C         C         0.40617   0.77997   0.02567   -0.163907           
         C         C         0.29582   0.05123   0.54190   -0.154998           
         C         C         0.71564   0.90133   0.45133   -0.167203           
         C         C         0.45011   0.70109   0.30265   -0.157464           
         C         C         0.55382   0.29926   0.31716   -0.154729           
         C         C         0.72664   0.58416   0.79694   -0.163894           
         C         C         0.27733   0.41262   0.79491   -0.167376           
         C         C         0.03448   0.71491   0.44245   -0.157335           
         C         C         0.96500   0.29918   0.41392   -0.154119           
         C         C         0.80214   0.52973   0.09592   -0.154225           
         C         C         0.20202   0.45991   0.06813   -0.159500           
         C         C         0.91732   0.25620   0.82596   -0.158797           
         C         C         0.08196   0.75672   0.84527   -0.156632           
         C         C         0.25035   0.09184   0.14254   -0.158675           
         C         C         0.76409   0.94046   0.04307   -0.156557           
         C         C         0.59545   0.25361   0.91861   -0.157584           
         C         C         0.40740   0.74540   0.89925   -0.157716           
         C         C         0.26395   0.05651   0.67553   -0.157389           
         C         C         0.74990   0.90224   0.58068   -0.154710           
         C         C         0.44460   0.73224   0.43875   -0.160696           
         C         C         0.55743   0.26841   0.45628   -0.161625           
         C         C         0.75933   0.58332   0.66238   -0.161660           
         C         C         0.24360   0.41290   0.66296   -0.159146           
         C         C         0.04076   0.74505   0.30076   -0.168745           
         C         C         0.95881   0.26960   0.27170   -0.167066           
         C         C         0.77374   0.53658   0.23963   -0.165429           
         C         C         0.23166   0.45444   0.21043   -0.165044           
         C         C         0.91548   0.24297   0.00464   0.085675  
         C         C         0.08086   0.76988   0.02366   0.081617  
         C         C         0.23942   0.09030   0.96152   0.084130  
         C         C         0.77337   0.91166   0.89979   0.096250  
         C         C         0.59174   0.24230   0.73870   0.080389  
         C         C         0.40791   0.75672   0.71840   0.083760  
         C         C         0.27459   0.08346   0.82473   0.096410  
         C         C         0.73830   0.90499   0.76023   0.080150  
         C         C         0.41464   0.72201   0.57962   0.097592  
         C         C         0.58771   0.27734   0.59804   0.097070  
         C         C         0.74511   0.58455   0.48498   0.081888  
         C         C         0.25629   0.41427   0.48401   0.080902  
         C         C         0.07319   0.73629   0.16880   0.099104  
         C         C         0.92291   0.27613   0.15004   0.100747  
         C         C         0.77709   0.57778   0.33612   0.105614  
         C         C         0.22285   0.42015   0.33843   0.098470  
         C         C         0.90725   0.19653   0.04694   -0.290477           
         C         C         0.08604   0.81681   0.06394   -0.287871           
         C         C         0.19310   0.09432   0.91185   -0.286160           
         C         C         0.81602   0.89032   0.89730   -0.290464           
         C         C         0.58924   0.19552   0.69243   -0.284676           
         C         C         0.40321   0.80305   0.67024   -0.287687           
         C         C         0.31893   0.10338   0.83597   -0.289862           
         C         C         0.69145   0.90364   0.80558   -0.285908           
         C         C         0.39150   0.67901   0.58051   -0.292464           
         C         C         0.61287   0.31922   0.59692   -0.289117           
         C         C         0.69849   0.59005   0.44591   -0.291730           
         C         C         0.30312   0.41237   0.44198   -0.290073           
         C         C         0.09822   0.69587   0.18243   -0.290076           
         C         C         0.89424   0.31342   0.17353   -0.288851           
         C         C         0.80967   0.61136   0.28458   -0.290224           
         C         C         0.18317   0.39215   0.31904   -0.288129           
         C         C         0.90272   0.16328   0.91536   0.242698  
         C         C         0.09044   0.85007   0.93114   0.237865  
         C         C         0.15848   0.09748   0.03752   0.240602  
         C         C         0.84751   0.89575   0.03620   0.240447  
         C         C         0.58801   0.16103   0.82053   0.238046  
         C         C         0.40015   0.83751   0.79675   0.243067  
         C         C         0.35100   0.09823   0.70104   0.245550  
         C         C         0.65726   0.90247   0.67631   0.238850  
         C         C         0.39636   0.64805   0.44168   0.238144  
         C         C         0.60937   0.35034   0.45635   0.238649  
         C         C         0.66612   0.59298   0.58023   0.238657  
         C         C         0.33667   0.41116   0.57356   0.238036  
         C         C         0.09272   0.66616   0.32692   0.240732  
         C         C         0.89975   0.34237   0.31915   0.240880  
         C         C         0.83755   0.60486   0.13707   0.247290  
         C         C         0.15391   0.39682   0.17329   0.239439  
         O         O         0.89372   0.11791   0.95521   -0.419771           
         O         O         0.09702   0.89587   0.96809   -0.422843           
         O         O         0.11327   0.10164   0.99138   -0.430333           
         O         O         0.88923   0.87478   0.03379   -0.424413           
         O         O         0.58354   0.11535   0.77911   -0.432828           
         O         O         0.39410   0.88246   0.74995   -0.421548           
         O         O         0.39412   0.11823   0.71371   -0.420960           
         O         O         0.61142   0.90269   0.71611   -0.429814           
         O         O         0.37262   0.60652   0.43825   -0.422775           
         O         O         0.63416   0.39131   0.45498   -0.426533           
         O         O         0.62054   0.59946   0.54471   -0.418737           
         O         O         0.38250   0.40979   0.53521   -0.425029           
         O         O         0.11800   0.62723   0.34509   -0.422514           
         O         O         0.87046   0.37773   0.34801   -0.422514           
         O         O         0.86814   0.63855   0.08035   -0.429249           
         O         O         0.11585   0.36834   0.15067   -0.424085           
         H         H         0.91798   0.01024   0.17866   0.112101  
         H         H         0.07762   0.00449   0.18561   0.116945  
         H         H         0.00136   0.08528   0.78179   0.117146  
         H         H         0.98955   0.92489   0.80302   0.112589  
         H         H         0.57615   -0.00049  0.53016   0.117973  
         H         H         0.42144   0.99320   0.54050   0.114028  
         H         H         0.50057   0.07041   0.96210   0.114446  
         H         H         0.50081   0.91654   0.94721   0.118196  
         H         H         0.42211   0.50646   0.68673   0.112635  
         H         H         0.58440   0.49074   0.68435   0.112277  
         H         H         0.51468   0.58042   0.31785   0.111856  
         H         H         0.49262   0.41874   0.30842   0.111603  
         H         H         0.07861   0.53016   0.08063   0.104552  
         H         H         0.91893   0.47835   0.06668   0.105441  
         H         H         0.97857   0.57972   0.42858   0.107124  
         H         H         0.02120   0.42041   0.40406   0.107185  
         H         H         0.89451   0.06862   0.39589   0.103714  
         H         H         0.10114   0.94689   0.40851   0.108472  
         H         H         0.05822   0.10821   0.55328   0.108877  
         H         H         0.93470   0.90498   0.56146   0.100033  
         H         H         0.59946   0.06049   0.31530   0.111161  
         H         H         0.39561   0.93641   0.31566   0.105256  
         H         H         0.44580   0.08956   0.19826   0.101872  
         H         H         0.55879   0.89260   0.16815   0.108742  
         H         H         0.40506   0.56094   0.92653   0.100602  
         H         H         0.60193   0.43723   0.92926   0.099892  
         H         H         0.57545   0.60296   0.10209   0.104678  
         H         H         0.43181   0.39710   0.09091   0.104635  
         H         H         0.08871   0.58973   0.84596   0.096818  
         H         H         0.90843   0.42118   0.82663   0.095462  
         H         H         0.92053   0.58935   0.66355   0.098565  
         H         H         0.07793   0.40690   0.64167   0.095189  
         H         H         0.02016   0.14557   0.29861   0.109683  
         H         H         0.97547   0.86940   0.31329   0.108834  
         H         H         0.13348   0.98611   0.66665   0.112524  
         H         H         0.86728   0.03293   0.64221   0.109137  
         H         H         0.48086   0.13710   0.45792   0.112014  
         H         H         0.51530   0.85742   0.42218   0.110852  
         H         H         0.36300   0.96981   0.06441   0.110875  
         H         H         0.64023   0.01454   0.05169   0.113075  
         H         H         0.53814   0.62640   0.85535   0.107704  
         H         H         0.46999   0.36961   0.85621   0.106367  
         H         H         0.63870   0.47261   0.18485   0.108430  
         H         H         0.36611   0.52519   0.18817   0.108846  
         H         H         0.94685   0.62477   0.90287   0.102871  
         H         H         0.04910   0.38238   0.89181   0.102930  
         H         H         0.87270   0.44959   0.58645   0.102686  
         H         H         0.11907   0.55006   0.62339   0.103807  
         H         H         0.04419   0.08755   0.08903   0.116453  
         H         H         0.95180   0.92608   0.09623   0.109371  
         H         H         0.07672   0.96245   0.88594   0.114830  
         H         H         0.92108   0.05297   0.87680   0.108854  
         H         H         0.45726   0.07681   0.66603   0.108449  
         H         H         0.54142   0.91343   0.64140   0.115540  
         H         H         0.41711   0.95011   0.83576   0.109691  
         H         H         0.58285   0.03889   0.83669   0.116661  
         H         H         0.55523   0.57302   0.62135   0.108768  
         H         H         0.45220   0.42227   0.61630   0.112657  
         H         H         0.57869   0.44991   0.39289   0.108188  
         H         H         0.42628   0.54705   0.39751   0.109360  
         H         H         0.93691   0.56661   0.13240   0.108241  
         H         H         0.05948   0.43809   0.12653   0.104854  
         H         H         0.92966   0.43992   0.35580   0.105263  
         H         H         0.06457   0.56319   0.38506   0.106202  
         H         H         0.96982   0.17420   0.50749   0.063692  
         H         H         0.02510   0.84121   0.52503   0.062727  
         H         H         0.16192   0.03380   0.44943   0.063712  
         H         H         0.84551   0.99013   0.40285   0.062770  
         H         H         0.52972   0.16845   0.24054   0.064457  
         H         H         0.46564   0.83055   0.20705   0.063593  
         H         H         0.34213   0.01036   0.30662   0.061552  
         H         H         0.66744   0.96486   0.26843   0.068376  
         H         H         0.49448   0.64932   0.09204   0.062277  
         H         H         0.51207   0.35015   0.10094   0.060949  
         H         H         0.67332   0.52467   0.98177   0.063577  
         H         H         0.33145   0.47482   0.98321   0.064079  
         H         H         0.98985   0.65823   0.66475   0.064816  
         H         H         0.00656   0.35250   0.64799   0.060441  
         H         H         0.84093   0.49329   0.82146   0.058500  
         H         H         0.14784   0.50379   0.85636   0.061067  
         H         H         0.91678   0.23287   0.55634   0.104137  
         H         H         0.08456   0.77987   0.57457   0.109449  
         H         H         0.22438   0.09468   0.40801   0.107618  
         H         H         0.78642   0.96719   0.29175   0.110445  
         H         H         0.59661   0.22802   0.18623   0.110179  
         H         H         0.40648   0.77101   0.16541   0.105779  
         H         H         0.28581   0.03095   0.42729   0.109750  
         H         H         0.72485   0.89962   0.31253   0.110287  
         H         H         0.47250   0.71052   0.19312   0.111518  
         H         H         0.53134   0.29036   0.20686   0.109066  
         H         H         0.73741   0.58209   0.93465   0.101993  
         H         H         0.26735   0.41232   0.93328   0.108650  
         H         H         0.01022   0.72310   0.54559   0.108451  
         H         H         0.99231   0.29298   0.50871   0.108704  
         H         H         0.79885   0.49763   0.02363   0.106764  
         H         H         0.21040   0.48566   0.96803   0.108700  
         H         H         0.92226   0.29224   0.79058   0.110062  
         H         H         0.07903   0.72054   0.81027   0.109508  
         H         H         0.28598   0.09029   0.18533   0.107071  
         H         H         0.73189   0.95855   0.04597   0.100457  
         H         H         0.59793   0.28947   0.95835   0.110029  
         H         H         0.40951   0.70970   0.94079   0.109436  
         H         H         0.23028   0.03947   0.66564   0.101985  
         H         H         0.78581   0.90255   0.54173   0.107913  
         H         H         0.46369   0.76494   0.43731   0.103788  
         H         H         0.53667   0.23674   0.45639   0.102207  
         H         H         0.79554   0.58065   0.69464   0.111335  
         H         H         0.20752   0.41349   0.69901   0.110437  
         H         H         0.02082   0.77608   0.29158   0.101785  
         H         H         0.98175   0.24117   0.25252   0.106958  
         H         H         0.74883   0.51008   0.28009   0.109027  
         H         H         0.26219   0.47662   0.22362   0.105406  
         H         H         0.90368   0.18624   0.18496   0.117036  
         H         H         0.08727   0.82752   0.20169   0.114371  
         H         H         0.18378   0.09532   0.77232   0.115055  
         H         H         0.82444   0.86794   0.78795   0.126578  
         H         H         0.58842   0.18572   0.55369   0.111470  
         H         H         0.40114   0.81270   0.53119   0.115765  
         H         H         0.32838   0.12460   0.94924   0.126544  
         H         H         0.68127   0.90340   0.94399   0.114564  
         H         H         0.36803   0.67022   0.68786   0.129564  
         H         H         0.63663   0.32739   0.70454   0.126713  
         H         H         0.68733   0.59261   0.30868   0.118255  
         H         H         0.31362   0.41147   0.30402   0.114861  
         H         H         0.12364   0.68836   0.08230   0.128473  
         H         H         0.86625   0.31884   0.08040   0.127593  
         H         H         0.81235   0.64360   0.35690   0.127686  
         H         H         0.17593   0.36506   0.41567   0.127323  
         H         H         0.89830   0.11300   0.08195   0.334754  
         H         H         0.09176   0.90079   0.09409   0.331022  
         H         H         0.10948   0.09617   0.86463   0.333030  
         H         H         0.89326   0.86226   0.91606   0.361179  
         H         H         0.58013   0.11210   0.65121   0.330062  
         H         H         0.40023   0.88647   0.62370   0.333338  
         H         H         0.39779   0.13044   0.83245   0.363648  
         H         H         0.60768   0.90669   0.84343   0.332123  
         H         H         0.35616   0.60303   0.54917   0.362957  
         H         H         0.64980   0.39458   0.56816   0.364059  
         H         H         0.61494   0.59539   0.41808   0.332786  
         H         H         0.38695   0.41343   0.40776   0.328845  
         H         H         0.13513   0.62302   0.23670   0.362490  
         H         H         0.84957   0.37913   0.24781   0.361892  
         H         H         0.86694   0.66402   0.16255   0.363572  
         H         H         0.11340   0.34825   0.25335   0.364632  
         C         C         0.99770   0.00663   0.98865   0.005662  
         C         C         0.49970   0.99480   0.74399   0.004952  
         C         C         0.50311   0.49860   0.49978   0.006695  
         C         C         0.99859   0.50199   0.24701   0.003861 

