
##########################################################################
#               Crystallographic Information Format file
#               Produced by PyCifRW module
#
#  This is a CIF file.  CIF has been adopted by the International
#  Union of Crystallography as the standard for data archiving and
#  transmission.
#
#  For information on this file format, follow the CIF links at
#  http://www.iucr.org
##########################################################################

data_image0

_cell_length_a                          30.0289
_cell_length_b                          30.1963
_cell_length_c                          8.06992
_cell_angle_alpha                       113.098
_cell_angle_beta                        80.0864
_cell_angle_gamma                       120.227
_symmetry_space_group_name_H-M          'P 1'
_space_group_name_Hall                  'P 1'
loop_
  _atom_site_type_symbol
  _atom_site_label
  _atom_site_fract_x
  _atom_site_fract_y
  _atom_site_fract_z
  _atom_site_charge
         C         C         0.94838   0.45861   0.26410   -0.092366           
         C         C         0.54419   0.48825   0.24899   -0.108939           
         C         C         0.51579   0.05574   0.28629   -0.097194           
         C         C         0.98769   0.44708   0.26953   -0.215678           
         C         C         0.55469   0.53569   0.22084   -0.221420           
         C         C         0.46422   0.01463   0.26953   -0.213329           
         C         C         0.03967   0.48513   0.27424   0.202062  
         C         C         0.51686   0.55068   0.23291   0.208663  
         C         C         0.45014   0.96178   0.25477   0.207804  
         C         C         0.89494   0.41566   0.28584   0.454491  
         C         C         0.59134   0.48303   0.25495   0.446840  
         C         C         0.52242   0.10953   0.29396   0.455556  
         N         N         0.85682   0.43034   0.30574   -0.233822           
         N         N         0.58019   0.43689   0.28610   -0.240846           
         N         N         0.57043   0.15407   0.35697   -0.234567           
         N         N         0.80865   0.39801   0.34823   -0.096799           
         N         N         0.61694   0.42605   0.30863   -0.082389           
         N         N         0.58284   0.20476   0.36405   -0.099773           
         C         C         0.77521   0.41417   0.35789   -0.022367           
         C         C         0.59913   0.38317   0.35222   -0.001152           
         C         C         0.62949   0.24311   0.42002   -0.011480           
         C         C         0.72120   0.38163   0.38934   0.072030  
         C         C         0.63357   0.36571   0.37920   0.079315  
         C         C         0.64842   0.29794   0.41812   0.077719  
         O         O         0.88707   0.37260   0.29803   -0.455858           
         O         O         0.63532   0.51806   0.23903   -0.448863           
         O         O         0.48706   0.11267   0.25042   -0.453417           
         C         C         0.70172   0.33163   0.41676   -0.165623           
         C         C         0.68721   0.39881   0.37469   -0.152649           
         C         C         0.61427   0.31520   0.39976   -0.164172           
         O         O         0.92456   0.52117   0.24455   -0.212971           
         O         O         0.47881   0.40325   0.29409   -0.237588           
         O         O         0.60570   0.08221   0.31170   -0.239690           
         C         C         0.93863   0.56907   0.20559   0.026068  
         C         C         0.43152   0.35666   0.19557   0.022948  
         C         C         0.64163   0.06823   0.18759   0.025790  
         H         H         0.97541   0.40739   0.27781   0.133105  
         H         H         0.59453   0.56119   0.19379   0.134757  
         H         H         0.43616   0.02706   0.26673   0.131491  
         H         H         0.86514   0.46430   0.27744   0.239013  
         H         H         0.54208   0.41148   0.30080   0.228710  
         H         H         0.59777   0.14580   0.37850   0.238612  
         H         H         0.78585   0.45129   0.33081   0.078517  
         H         H         0.55761   0.35877   0.36832   0.074654  
         H         H         0.65714   0.23544   0.46176   0.082052  
         H         H         0.70152   0.43734   0.35402   0.117592  
         H         H         0.57291   0.28778   0.39735   0.115545  
         H         H         0.72851   0.31859   0.42938   0.119171  
         C         C         0.05419   0.53660   0.26723   -0.097568           
         C         C         0.46557   0.51645   0.26862   -0.105979           
         C         C         0.48848   0.94819   0.26185   -0.101239           
         C         C         0.01502   0.54758   0.25413   -0.224950           
         C         C         0.45465   0.46767   0.28685   -0.202469           
         C         C         0.54001   0.98912   0.27413   -0.202506           
         C         C         0.96308   0.50965   0.25175   0.200965  
         C         C         0.49241   0.45293   0.27704   0.199272  
         C         C         0.55412   0.04204   0.28812   0.197087  
         C         C         0.10807   0.58233   0.27070   0.454936  
         C         C         0.41987   0.52576   0.28380   0.456733  
         C         C         0.48097   0.89611   0.27158   0.445703  
         O         O         0.11637   0.62125   0.23102   -0.460684           
         O         O         0.37550   0.48740   0.25384   -0.439649           
         O         O         0.51786   0.88913   0.27779   -0.448941           
         N         N         0.14656   0.57695   0.31919   -0.231190           
         N         N         0.43221   0.58075   0.33989   -0.247337           
         N         N         0.43009   0.85903   0.28537   -0.234573           
         N         N         0.19667   0.61510   0.32629   -0.100645           
         N         N         0.39493   0.59501   0.35568   -0.089921           
         N         N         0.41884   0.81367   0.31677   -0.092613           
         C         C         0.22966   0.60720   0.37950   -0.010193           
         C         C         0.41061   0.64640   0.38496   -0.015417           
         C         C         0.37075   0.78247   0.33877   -0.015224           
         C         C         0.28444   0.64536   0.38457   0.075366  
         C         C         0.37360   0.66515   0.39261   0.081484  
         C         C         0.35465   0.73171   0.36619   0.072348  
         C         C         0.30196   0.69647   0.36877   -0.167685           
         C         C         0.32024   0.63007   0.39688   -0.156428           
         C         C         0.39073   0.71649   0.38156   -0.162915           
         O         O         0.07777   0.47356   0.28755   -0.228859           
         O         O         0.52790   0.59950   0.21979   -0.224122           
         O         O         0.39877   0.92178   0.23593   -0.223238           
         C         C         0.06688   0.41724   0.20701   0.029830  
         C         C         0.57762   0.63131   0.15483   0.025007  
         C         C         0.36085   0.93180   0.19044   0.022677  
         H         H         0.02809   0.58734   0.24523   0.134811  
         H         H         0.41488   0.44133   0.31120   0.137214  
         H         H         0.56856   0.97728   0.27607   0.131813  
         H         H         0.13583   0.54298   0.34952   0.240838  
         H         H         0.47009   0.60839   0.33214   0.234829  
         H         H         0.40168   0.86611   0.26374   0.236783  
         H         H         0.21825   0.57196   0.41844   0.084108  
         H         H         0.45176   0.67658   0.39646   0.083445  
         H         H         0.33984   0.79141   0.33218   0.073024  
         H         H         0.30804   0.59047   0.40626   0.116392  
         H         H         0.43156   0.74546   0.38184   0.122142  
         H         H         0.27373   0.70746   0.35444   0.115669  
         C         C         0.57939   0.68369   0.16565   -0.142995           
         C         C         0.31370   0.87617   0.11115   -0.144851           
         C         C         0.11706   0.41649   0.14135   -0.142937           
         C         C         0.62893   0.71935   0.08793   -0.368427           
         C         C         0.26976   0.88021   0.05750   -0.372200           
         C         C         0.10695   0.35759   0.03655   -0.375809           
         C         C         0.43303   0.30340   0.14802   -0.142291           
         C         C         0.68885   0.12217   0.19135   -0.145670           
         C         C         0.88916   0.56764   0.17776   -0.149091           
         C         C         0.38092   0.25385   0.06261   -0.375574           
         C         C         0.73254   0.11553   0.07404   -0.374550           
         C         C         0.90153   0.61794   0.13747   -0.370509           
         H         H         0.96178   0.56842   0.08420   0.072613  
         H         H         0.42898   0.36311   0.07344   0.067589  
         H         H         0.62291   0.04331   0.05279   0.077296  
         H         H         0.96251   0.60624   0.31782   0.071334  
         H         H         0.39840   0.35659   0.27850   0.076962  
         H         H         0.65134   0.04353   0.22954   0.066489  
         H         H         0.03898   0.39596   0.09403   0.069723  
         H         H         0.58084   0.60659   0.01533   0.074218  
         H         H         0.37689   0.95200   0.09061   0.078162  
         H         H         0.04924   0.39718   0.30663   0.070210  
         H         H         0.60878   0.64035   0.23795   0.071913  
         H         H         0.35229   0.95930   0.31239   0.074294  
         H         H         0.57651   0.70721   0.30740   0.092043  
         H         H         0.30018   0.85445   0.20708   0.094581  
         H         H         0.14395   0.43625   0.25627   0.092409  
         H         H         0.53817   0.66414   0.56566   0.081400  
         H         H         0.31921   0.84488   0.50852   0.082026  
         H         H         0.12428   0.43704   0.53914   0.086908  
         H         H         0.63423   0.70861   0.48028   0.116238  
         H         H         0.28507   0.90287   0.47167   0.113494  
         H         H         0.05165   0.32784   0.48640   0.118477  
         H         H         0.66333   0.73826   0.17321   0.120363  
         H         H         0.25104   0.89695   0.17563   0.120627  
         H         H         0.08738   0.33187   0.11900   0.116168  
         H         H         0.61360   0.75647   0.61848   0.131354  
         H         H         0.23507   0.84256   0.50583   0.137079  
         H         H         0.11495   0.34748   0.40179   0.128421  
         H         H         0.44224   0.30088   0.26923   0.092971  
         H         H         0.70346   0.14717   0.33147   0.095375  
         H         H         0.86567   0.56598   0.29789   0.091204  
         H         H         0.45745   0.30249   0.56540   0.093156  
         H         H         0.67776   0.14496   0.63649   0.089636  
         H         H         0.85669   0.52518   0.56390   0.081618  
         H         H         0.37642   0.21308   0.49851   0.137305  
         H         H         0.76718   0.15775   0.58359   0.134669  
         H         H         0.84842   0.60659   0.61391   0.134465  
         H         H         0.36716   0.25772   0.43561   0.112709  
         H         H         0.72407   0.09512   0.42360   0.111799  
         H         H         0.91052   0.62030   0.52847   0.114109  
         H         H         0.35261   0.24281   0.16508   0.115529  
         H         H         0.75212   0.10237   0.13260   0.118637  
         H         H         0.92009   0.65578   0.25460   0.119598  
         C         C         0.94463   0.46192   0.77944   -0.103110           
         C         C         0.53842   0.48331   0.74510   -0.112745           
         C         C         0.51113   0.05104   0.76295   -0.100999           
         C         C         0.98460   0.45197   0.79049   -0.209124           
         C         C         0.55098   0.53168   0.71869   -0.223621           
         C         C         0.46010   0.01049   0.76285   -0.209241           
         C         C         0.03639   0.48817   0.77789   0.200974  
         C         C         0.51421   0.54772   0.72756   0.210988  
         C         C         0.44792   0.95823   0.74934   0.198313  
         C         C         0.89227   0.42099   0.81893   0.448648  
         C         C         0.58439   0.47658   0.75409   0.445263  
         C         C         0.51709   0.10478   0.77679   0.453598  
         N         N         0.85271   0.43302   0.82732   -0.233616           
         N         N         0.57164   0.43054   0.79075   -0.243884           
         N         N         0.56590   0.14861   0.83286   -0.233249           
         N         N         0.80449   0.40012   0.86830   -0.101983           
         N         N         0.60799   0.42001   0.81814   -0.087481           
         N         N         0.57876   0.19940   0.84221   -0.093058           
         C         C         0.77020   0.41570   0.88087   -0.017421           
         C         C         0.59087   0.37590   0.85470   -0.009011           
         C         C         0.62637   0.23623   0.88978   -0.019496           
         C         C         0.71567   0.38027   0.90037   0.072272  
         C         C         0.62694   0.36036   0.88233   0.078989  
         C         C         0.64473   0.29178   0.89839   0.078267  
         O         O         0.88652   0.38142   0.85143   -0.451847           
         O         O         0.62860   0.50962   0.73443   -0.441981           
         O         O         0.48086   0.10842   0.74380   -0.455872           
         C         C         0.69761   0.32800   0.90748   -0.167192           
         C         C         0.68037   0.39689   0.89361   -0.149792           
         C         C         0.60935   0.30844   0.88763   -0.167854           
         O         O         0.91922   0.51946   0.72999   -0.216552           
         O         O         0.47173   0.39953   0.79306   -0.233228           
         O         O         0.60126   0.07889   0.75362   -0.231874           
         C         C         0.93127   0.56640   0.68743   0.024557  
         C         C         0.42217   0.35289   0.71186   0.026813  
         C         C         0.64152   0.06631   0.66095   0.033750  
         H         H         0.97312   0.41508   0.81748   0.131441  
         H         H         0.59144   0.55609   0.69300   0.136783  
         H         H         0.43046   0.02205   0.77636   0.131029  
         H         H         0.86015   0.46530   0.79058   0.242492  
         H         H         0.53325   0.40564   0.80384   0.231323  
         H         H         0.59367   0.13989   0.84744   0.239327  
         H         H         0.78014   0.45389   0.86261   0.082698  
         H         H         0.54947   0.34824   0.85878   0.075915  
         H         H         0.65399   0.22643   0.92024   0.084989  
         H         H         0.69292   0.43728   0.88983   0.121840  
         H         H         0.56837   0.27918   0.87759   0.114419  
         H         H         0.72587   0.31610   0.91345   0.118664  
         C         C         0.05018   0.53717   0.75222   -0.097667           
         C         C         0.46217   0.51398   0.75915   -0.103232           
         C         C         0.48769   0.94534   0.73824   -0.102449           
         C         C         0.01011   0.54605   0.73158   -0.227303           
         C         C         0.44951   0.46459   0.77656   -0.205389           
         C         C         0.53864   0.98518   0.72982   -0.204993           
         C         C         0.95832   0.50972   0.74440   0.208178  
         C         C         0.48604   0.44861   0.77051   0.200713  
         C         C         0.55086   0.03776   0.74585   0.205691  
         C         C         0.10367   0.58343   0.74869   0.447169  
         C         C         0.41679   0.52347   0.76847   0.454828  
         C         C         0.48242   0.89390   0.74483   0.454069  
         O         O         0.11056   0.62176   0.70841   -0.453961           
         O         O         0.37302   0.48442   0.72485   -0.441368           
         O         O         0.51954   0.88557   0.72701   -0.452961           
         N         N         0.14291   0.57908   0.79686   -0.229097           
         N         N         0.42785   0.57808   0.83494   -0.236739           
         N         N         0.43370   0.85987   0.78712   -0.236227           
         N         N         0.19309   0.61842   0.80966   -0.102239           
         N         N         0.39016   0.59138   0.84348   -0.092311           
         N         N         0.42244   0.81377   0.81341   -0.089979           
         C         C         0.22528   0.61092   0.86973   -0.006193           
         C         C         0.40488   0.64283   0.88026   -0.008360           
         C         C         0.37452   0.78568   0.84693   -0.020472           
         C         C         0.28071   0.64797   0.87934   0.080097  
         C         C         0.36839   0.66225   0.88610   0.081374  
         C         C         0.35471   0.73364   0.87015   0.077012  
         C         C         0.30125   0.70055   0.87104   -0.170095           
         C         C         0.31441   0.62935   0.88754   -0.157357           
         C         C         0.38812   0.71463   0.88027   -0.160870           
         O         O         0.07453   0.47605   0.78827   -0.229913           
         O         O         0.52567   0.59685   0.71748   -0.229999           
         O         O         0.39658   0.91907   0.75041   -0.223098           
         C         C         0.06113   0.41865   0.71222   0.027560  
         C         C         0.57325   0.62806   0.64103   0.023145  
         C         C         0.35854   0.92728   0.69566   0.026696  
         H         H         0.02183   0.58329   0.70639   0.131873  
         H         H         0.40921   0.43880   0.79743   0.136242  
         H         H         0.56781   0.97286   0.71434   0.134625  
         H         H         0.13248   0.54458   0.82393   0.237951  
         H         H         0.46602   0.60732   0.85028   0.237878  
         H         H         0.40475   0.86848   0.78486   0.232221  
         H         H         0.21209   0.57565   0.91030   0.084861  
         H         H         0.44583   0.67401   0.90183   0.079843  
         H         H         0.34628   0.79925   0.85189   0.070270  
         H         H         0.29932   0.58864   0.89228   0.118174  
         H         H         0.42948   0.74167   0.88072   0.120921  
         H         H         0.27514   0.71461   0.86033   0.117371  
         C         C         0.57005   0.67816   0.65525   -0.135787           
         C         C         0.30977   0.87285   0.62451   -0.150009           
         C         C         0.10823   0.41323   0.62831   -0.140943           
         C         C         0.61995   0.72332   0.61426   -0.374421           
         C         C         0.26950   0.88163   0.56869   -0.373539           
         C         C         0.09300   0.35218   0.52487   -0.375624           
         C         C         0.42454   0.29973   0.65287   -0.148975           
         C         C         0.68909   0.12156   0.67906   -0.146460           
         C         C         0.88001   0.56337   0.67318   -0.142120           
         C         C         0.37448   0.25140   0.55113   -0.371811           
         C         C         0.73438   0.11692   0.56829   -0.373535           
         C         C         0.88599   0.61280   0.64247   -0.372397           
         H         H         0.95203   0.56484   0.56124   0.069415  
         H         H         0.41377   0.35808   0.59555   0.077192  
         H         H         0.62900   0.04036   0.51943   0.074426  
         H         H         0.95681   0.60425   0.79385   0.068100  
         H         H         0.39142   0.35237   0.80899   0.074738  
         H         H         0.64853   0.04384   0.72349   0.066135  
         H         H         0.03053   0.39769   0.60888   0.072607  
         H         H         0.57458   0.60251   0.50130   0.068905  
         H         H         0.37474   0.94505   0.58945   0.076163  
         H         H         0.04542   0.40055   0.81714   0.068430  
         H         H         0.60705   0.63923   0.71534   0.069517  
         H         H         0.35044   0.95666   0.81198   0.068942  
         H         H         0.55893   0.69469   0.79354   0.087518  
         H         H         0.29435   0.85325   0.72589   0.096088  
         H         H         0.13807   0.43237   0.73292   0.094445  
         H         H         0.54535   0.67246   0.09214   0.087359  
         H         H         0.32626   0.85184   0.99217   0.076566  
         H         H         0.13530   0.44149   0.05600   0.093450  
         H         H         0.63598   0.69539   0.95328   0.113396  
         H         H         0.28340   0.90638   0.97622   0.115402  
         H         H         0.08211   0.33893   0.91688   0.116406  
         H         H         0.65078   0.74130   0.71406   0.118959  
         H         H         0.25690   0.90673   0.68450   0.118378  
         H         H         0.10033   0.33487   0.60729   0.121694  
         H         H         0.62614   0.75255   0.07388   0.130485  
         H         H         0.24016   0.83939   0.97593   0.136369  
         H         H         0.14293   0.35600   0.99183   0.132287  
         H         H         0.43114   0.29290   0.76868   0.090802  
         H         H         0.70092   0.14458   0.82268   0.091418  
         H         H         0.85885   0.56001   0.79713   0.091640  
         H         H         0.46449   0.30354   0.05490   0.088800  
         H         H         0.67630   0.14460   0.14852   0.089005  
         H         H         0.86635   0.52968   0.06709   0.079616  
         H         H         0.38469   0.21736   0.97912   0.137519  
         H         H         0.76159   0.15481   0.06090   0.135160  
         H         H         0.86679   0.61541   0.09916   0.131643  
         H         H         0.36417   0.26250   0.97586   0.118315  
         H         H         0.71869   0.08536   0.93753   0.114207  
         H         H         0.92840   0.62215   0.02648   0.113442  
         H         H         0.34100   0.24592   0.63741   0.117846  
         H         H         0.74806   0.09522   0.60981   0.119401  
         H         H         0.90349   0.65046   0.76060   0.119884 

