
##########################################################################
#               Crystallographic Information Format file
#               Produced by PyCifRW module
#
#  This is a CIF file.  CIF has been adopted by the International
#  Union of Crystallography as the standard for data archiving and
#  transmission.
#
#  For information on this file format, follow the CIF links at
#  http://www.iucr.org
##########################################################################

data_image0

_cell_length_a                          27.9783
_cell_length_b                          29.7922
_cell_length_c                          8.4075
_cell_angle_alpha                       77.966
_cell_angle_beta                        118.395
_cell_angle_gamma                       120.706
_symmetry_space_group_name_H-M          'P 1'
_space_group_name_Hall                  'P 1'
loop_
  _atom_site_type_symbol
  _atom_site_label
  _atom_site_fract_x
  _atom_site_fract_y
  _atom_site_fract_z
  _atom_site_charge
         C         C         0.50880   0.96876   0.25506   -0.099203           
         C         C         0.49936   0.91646   0.22116   0.453721  
         N         N         0.45123   0.87445   0.24949   -0.232597           
         N         N         0.43578   0.82406   0.22882   -0.109052           
         C         C         0.39149   0.79058   0.27266   -0.003212           
         C         C         0.36912   0.73477   0.26658   0.074233  
         O         O         0.53158   0.91282   0.16847   -0.462345           
         C         C         0.39904   0.71353   0.23558   -0.168270           
         O         O         0.41875   0.93673   0.30138   -0.219406           
         C         C         0.37357   0.94444   0.31619   0.028014  
         H         H         0.43033   0.88238   0.30459   0.243662  
         H         H         0.36984   0.80342   0.32057   0.083014  
         H         H         0.43888   0.73958   0.20803   0.115467  
         C         C         0.48533   0.03035   0.31166   -0.224423           
         C         C         0.47035   0.97899   0.29009   0.206172  
         H         H         0.45781   0.03977   0.34285   0.132931  
         C         C         0.31653   0.89229   0.26973   -0.075717           
         C         C         0.27198   0.87907   0.75200   -0.299889           
         H         H         0.36482   0.97385   0.22058   0.085352  
         H         H         0.40532   0.98093   0.94731   0.079680  
         H         H         0.29203   0.87853   0.12855   0.091515  
         H         H         0.24038   0.84101   0.78014   0.156282  
         H         H         0.25158   0.89768   0.63268   0.143034  
         C         C         0.07776   0.55854   0.47082   -0.105402           
         C         C         0.12285   0.60312   0.40733   0.450532  
         N         N         0.16550   0.59313   0.40390   -0.241404           
         N         N         0.20983   0.62898   0.35279   -0.086563           
         C         C         0.24489   0.61289   0.35228   -0.014309           
         C         C         0.29616   0.64734   0.30747   0.084134  
         O         O         0.12101   0.64435   0.36220   -0.444494           
         C         C         0.31748   0.70157   0.29982   -0.147305           
         O         O         0.11280   0.50947   0.04972   -0.215205           
         C         C         0.11334   0.46108   0.12396   0.013850  
         H         H         0.16276   0.55720   0.44457   0.236927  
         H         H         0.23773   0.57302   0.38761   0.078677  
         C         C         0.02042   0.47971   0.08546   -0.214414           
         C         C         0.06590   0.51716   0.03370   0.201540  
         H         H         0.01773   0.44204   0.13231   0.132945  
         H         H         0.07531   0.42827   0.02489   0.099161  
         H         H         0.10554   0.45427   0.24568   0.083972  
         C         C         0.17575   0.46807   0.17416   -0.073405           
         C         C         0.18574   0.43256   0.13980   -0.302380           
         H         H         0.21502   0.50437   0.24913   0.097575  
         H         H         0.23249   0.43894   0.18706   0.162492  
         H         H         0.14743   0.39604   0.06447   0.142683  
         H         H         0.29392   0.71718   0.32529   0.120565  
         C         C         0.47687   0.52739   0.23246   -0.113820           
         C         C         0.46966   0.48527   0.15793   -0.214532           
         C         C         0.52102   0.48149   0.18961   0.200462  
         C         C         0.41899   0.52609   0.20386   0.464767  
         N         N         0.42304   0.57476   0.17316   -0.230918           
         N         N         0.38710   0.58791   0.19865   -0.109225           
         C         C         0.40732   0.63791   0.20308   -0.001692           
         C         C         0.37716   0.65955   0.23921   0.069175  
         O         O         0.37372   0.48550   0.20657   -0.458337           
         C         C         0.32635   0.62661   0.27862   -0.173907           
         H         H         0.42281   0.45644   0.07290   0.136988  
         H         H         0.46465   0.60453   0.18126   0.237462  
         H         H         0.44837   0.66569   0.18085   0.075373  
         O         O         0.51702   0.44125   0.11884   -0.227568           
         C         C         0.45635   0.39903   0.01245   0.014061  
         H         H         0.43257   0.42247   0.39890   0.089109  
         H         H         0.43022   0.38027   0.09358   0.079202  
         C         C         0.46889   0.36172   0.96430   -0.066504           
         C         C         0.45367   0.31329   0.02361   -0.303721           
         H         H         0.49778   0.38557   0.39512   0.090673  
         H         H         0.31157   0.58492   0.28757   0.111084  
         C         C         0.53790   0.07302   0.30027   -0.102605           
         C         C         0.54829   0.12555   0.33553   0.454056  
         N         N         0.59641   0.16697   0.30603   -0.229228           
         N         N         0.61371   0.21773   0.32802   -0.107262           
         C         C         0.65871   0.25000   0.28517   -0.008318           
         C         C         0.68218   0.30598   0.28899   0.076693  
         O         O         0.51655   0.12991   0.38844   -0.465573           
         C         C         0.65264   0.32811   0.31756   -0.170388           
         O         O         0.62879   0.10480   0.25789   -0.216864           
         C         C         0.67379   0.09683   0.24312   0.027036  
         H         H         0.61672   0.15825   0.25107   0.240161  
         H         H         0.67974   0.23603   0.23867   0.082227  
         H         H         0.61279   0.30262   0.34554   0.116679  
         C         C         0.56121   0.01145   0.24321   -0.226292           
         C         C         0.57645   0.06274   0.26596   0.203998  
         H         H         0.58859   0.00206   0.21171   0.133614  
         C         C         0.73165   0.14849   0.29560   -0.074087           
         C         C         0.75235   0.18030   0.17899   -0.294560           
         H         H         0.68146   0.06669   0.33658   0.086441  
         H         H         0.65515   0.08313   0.10406   0.075333  
         H         H         0.75652   0.16002   0.43916   0.088887  
         H         H         0.81375   0.21259   0.79256   0.158349  
         H         H         0.79993   0.15440   0.93225   0.141608  
         C         C         0.97372   0.48709   0.07635   -0.105304           
         C         C         0.92989   0.44153   0.14079   0.454961  
         N         N         0.88525   0.44900   0.14164   -0.241824           
         N         N         0.84204   0.41201   0.19545   -0.085420           
         C         C         0.80595   0.42682   0.19597   -0.016824           
         C         C         0.75529   0.39243   0.24329   0.086752  
         O         O         0.93462   0.40150   0.19075   -0.447942           
         C         C         0.73386   0.33821   0.25482   -0.148052           
         O         O         0.94174   0.54026   0.50627   -0.215816           
         C         C         0.93140   0.58114   0.39050   0.016456  
         H         H         0.88492   0.48363   0.09548   0.236533  
         H         H         0.81190   0.46630   0.15862   0.077845  
         C         C         0.03242   0.56748   0.46459   -0.212001           
         C         C         0.98691   0.53088   0.51782   0.201630  
         H         H         0.03624   0.60563   0.42024   0.135054  
         H         H         0.96706   0.61965   0.45997   0.096847  
         H         H         0.93519   0.57906   0.26794   0.078434  
         C         C         0.86764   0.57026   0.34445   -0.074160           
         C         C         0.85282   0.60606   0.34710   -0.297368           
         H         H         0.83125   0.53008   0.30177   0.093239  
         H         H         0.80501   0.59602   0.30637   0.167060  
         H         H         0.88836   0.64634   0.39036   0.141065  
         H         H         0.75685   0.32173   0.23048   0.119601  
         C         C         0.58107   0.52045   0.29931   -0.111757           
         C         C         0.58835   0.56275   0.37265   -0.218625           
         C         C         0.53702   0.56666   0.34064   0.205784  
         C         C         0.63858   0.52004   0.33363   0.464902  
         N         N         0.63304   0.47075   0.37142   -0.234442           
         N         N         0.66758   0.45535   0.34831   -0.107477           
         C         C         0.64530   0.40514   0.34307   -0.002070           
         C         C         0.67480   0.38209   0.31043   0.068560  
         O         O         0.68457   0.55937   0.32966   -0.453497           
         C         C         0.72546   0.41397   0.26991   -0.176580           
         H         H         0.63512   0.59146   0.45835   0.137059  
         H         H         0.59073   0.44209   0.36194   0.235862  
         H         H         0.60328   0.37841   0.36123   0.078064  
         O         O         0.54134   0.60721   0.41039   -0.224548           
         C         C         0.60214   0.64862   0.52199   0.014156  
         H         H         0.62858   0.63901   0.15444   0.087236  
         H         H         0.62951   0.66807   0.44452   0.078155  
         C         C         0.59132   0.69288   0.07746   -0.069909           
         C         C         0.60554   0.73453   0.52154   -0.305985           
         H         H         0.56395   0.67701   0.15365   0.091190  
         H         H         0.63145   0.75220   0.44128   0.140216  
         H         H         0.59693   0.76732   0.06040   0.154777  
         H         H         0.74038   0.45563   0.25773   0.108567  
         C         C         0.51022   0.97268   0.75700   -0.098850           
         C         C         0.49792   0.91899   0.72211   0.454713  
         N         N         0.44820   0.87794   0.74710   -0.229576           
         N         N         0.43107   0.82680   0.72988   -0.108973           
         C         C         0.38524   0.79458   0.76962   -0.003001           
         C         C         0.36115   0.73819   0.76788   0.074131  
         O         O         0.52961   0.91362   0.67192   -0.461910           
         C         C         0.39112   0.71527   0.74641   -0.166904           
         O         O         0.42173   0.94399   0.80826   -0.216524           
         C         C         0.37916   0.95379   0.82936   0.016117  
         H         H         0.42662   0.88735   0.79459   0.237003  
         H         H         0.36328   0.80891   0.81052   0.080628  
         H         H         0.43238   0.74044   0.72483   0.114476  
         C         C         0.48992   0.03703   0.81218   -0.220621           
         C         C         0.47342   0.98509   0.79243   0.203273  
         H         H         0.46305   0.04762   0.84192   0.133517  
         C         C         0.33289   0.90162   0.85874   -0.066869           
         C         C         0.29657   0.86296   0.39103   -0.294319           
         H         H         0.35737   0.97163   0.70782   0.089280  
         H         H         0.39260   0.95873   0.45465   0.074396  
         H         H         0.35226   0.88202   0.97634   0.095241  
         H         H         0.25526   0.82488   0.35345   0.156546  
         H         H         0.32083   0.87605   0.53267   0.123806  
         C         C         0.06542   0.56469   0.96608   -0.100079           
         C         C         0.10996   0.60930   0.89960   0.456471  
         N         N         0.15253   0.59930   0.89582   -0.239745           
         N         N         0.19844   0.63526   0.84961   -0.091727           
         C         C         0.23120   0.61778   0.84079   -0.015296           
         C         C         0.28467   0.65151   0.80332   0.090028  
         O         O         0.10675   0.64994   0.84973   -0.455451           
         C         C         0.30794   0.70607   0.79556   -0.143453           
         O         O         0.12086   0.50108   0.53886   -0.225916           
         C         C         0.13372   0.46022   0.64993   0.023053  
         H         H         0.14930   0.56318   0.93444   0.232857  
         H         H         0.22048   0.57665   0.86281   0.082070  
         C         C         0.03180   0.47406   0.59209   -0.211518           
         C         C         0.07675   0.51041   0.53567   0.203314  
         H         H         0.02886   0.43627   0.63902   0.134644  
         H         H         0.09323   0.42204   0.58957   0.089539  
         H         H         0.14126   0.46501   0.78757   0.071187  
         C         C         0.19030   0.46675   0.64889   -0.087250           
         C         C         0.24541   0.48212   0.79350   -0.277905           
         H         H         0.18534   0.45885   0.51923   0.087704  
         H         H         0.28528   0.48686   0.78419   0.152482  
         H         H         0.25279   0.49031   0.92600   0.131868  
         H         H         0.28432   0.72272   0.81564   0.118793  
         C         C         0.47815   0.53343   0.74821   -0.107691           
         C         C         0.47044   0.49086   0.67408   -0.212314           
         C         C         0.52119   0.48623   0.70404   0.204909  
         C         C         0.41979   0.53189   0.72037   0.456742  
         N         N         0.42487   0.58067   0.71281   -0.236021           
         N         N         0.38346   0.59036   0.72208   -0.106243           
         C         C         0.40135   0.63994   0.72893   -0.001690           
         C         C         0.36799   0.66097   0.75128   0.067594  
         O         O         0.37259   0.49042   0.70399   -0.455773           
         C         C         0.31479   0.62924   0.78071   -0.163655           
         H         H         0.42337   0.46199   0.59070   0.135681  
         H         H         0.46809   0.61137   0.73990   0.235182  
         H         H         0.44440   0.66909   0.71942   0.075053  
         O         O         0.51600   0.44513   0.63435   -0.228713           
         C         C         0.45559   0.40454   0.51759   0.012220  
         H         H         0.43090   0.41508   0.89252   0.086634  
         H         H         0.42675   0.38427   0.59059   0.083117  
         C         C         0.46936   0.36830   0.46822   -0.065701           
         C         C         0.45165   0.31855   0.51503   -0.306372           
         H         H         0.49355   0.37675   0.88051   0.091375  
         H         H         0.29777   0.58719   0.78732   0.109545  
         C         C         0.54261   0.07879   0.79813   -0.094262           
         C         C         0.55484   0.13232   0.83381   0.456037  
         N         N         0.60376   0.17384   0.80653   -0.228894           
         N         N         0.62019   0.22481   0.82452   -0.106181           
         C         C         0.66663   0.25753   0.78814   -0.005970           
         C         C         0.69074   0.31394   0.78878   0.075658  
         O         O         0.52368   0.13721   0.88782   -0.462772           
         C         C         0.66178   0.33799   0.81003   -0.169386           
         O         O         0.63040   0.10790   0.74442   -0.218990           
         C         C         0.67381   0.09897   0.72527   0.017915  
         H         H         0.62513   0.16489   0.75662   0.238697  
         H         H         0.68970   0.24363   0.75064   0.078863  
         H         H         0.62087   0.31376   0.83393   0.115989  
         C         C         0.56330   0.01452   0.74458   -0.218392           
         C         C         0.57927   0.06648   0.76189   0.202881  
         H         H         0.59047   0.00391   0.71635   0.132515  
         C         C         0.72058   0.15174   0.70122   -0.067258           
         C         C         0.78099   0.17398   0.81372   -0.300186           
         H         H         0.69541   0.08102   0.84688   0.087286  
         H         H         0.64875   0.07242   0.60630   0.078270  
         H         H         0.70222   0.17214   0.58458   0.098169  
         H         H         0.79451   0.21778   0.22438   0.155888  
         H         H         0.72809   0.17016   0.03451   0.125201  
         C         C         0.98651   0.48314   0.58658   -0.101322           
         C         C         0.94249   0.43970   0.65662   0.453232  
         N         N         0.89856   0.44943   0.65191   -0.241132           
         N         N         0.85339   0.41439   0.70263   -0.092784           
         C         C         0.82017   0.43229   0.70597   -0.013193           
         C         C         0.76724   0.39962   0.74674   0.083940  
         O         O         0.94713   0.39980   0.71532   -0.458328           
         C         C         0.74372   0.34513   0.75927   -0.141913           
         O         O         0.92586   0.54129   -0.00319  -0.229721           
         C         C         0.91628   0.58469   0.89582   0.021750  
         H         H         0.90091   0.48499   0.60678   0.234459  
         H         H         0.83029   0.47311   0.67802   0.083135  
         C         C         0.01869   0.57217   0.95787   -0.216156           
         C         C         0.97307   0.53455   0.00992   0.203855  
         H         H         0.02057   0.60955   0.91002   0.135312  
         H         H         0.95610   0.62142   0.97106   0.091692  
         H         H         0.91400   0.58437   0.76170   0.076363  
         C         C         0.85701   0.57691   0.88080   -0.089569           
         C         C         0.80590   0.56576   0.72479   -0.271821           
         H         H         0.85621   0.58042   0.00603   0.088586  
         H         H         0.76370   0.56025   0.72066   0.148630  
         H         H         0.80420   0.56158   0.59640   0.127094  
         H         H         0.76663   0.32747   0.74055   0.120231  
         C         C         0.58204   0.52473   0.81133   -0.107073           
         C         C         0.58982   0.56740   0.88513   -0.210525           
         C         C         0.53906   0.57222   0.85412   0.200069  
         C         C         0.63955   0.52518   0.83672   0.461015  
         N         N         0.63500   0.47612   0.85747   -0.231749           
         N         N         0.67355   0.46464   0.83802   -0.108648           
         C         C         0.65418   0.41483   0.82959   -0.002802           
         C         C         0.68555   0.39239   0.80219   0.065673  
         O         O         0.68538   0.56601   0.83855   -0.456072           
         C         C         0.73789   0.42297   0.76793   -0.162473           
         H         H         0.63680   0.59622   0.96900   0.135237  
         H         H         0.59288   0.44568   0.84314   0.238639  
         H         H         0.61150   0.38644   0.84251   0.074288  
         O         O         0.54433   0.61378   0.92235   -0.226474           
         C         C         0.60474   0.65560   0.03271   0.016928  
         H         H         0.62640   0.63157   0.64091   0.088043  
         H         H         0.63262   0.67433   0.95644   0.079737  
         C         C         0.58908   0.68519   0.57215   -0.066000           
         C         C         0.60885   0.74224   0.02613   -0.301770           
         H         H         0.56212   0.66839   0.64949   0.095115  
         H         H         0.63547   0.75932   0.94781   0.142594  
         H         H         0.59345   0.75896   0.55860   0.151418  
         H         H         0.75507   0.46497   0.75644   0.108751  
         H         H         0.46453   0.28748   0.98865   0.154548  
         H         H         0.42991   0.29791   0.10991   0.139262  
         H         H         0.46415   0.29417   0.47957   0.152380  
         H         H         0.42411   0.30052   0.59056   0.143761 

