
##########################################################################
#               Crystallographic Information Format file
#               Produced by PyCifRW module
#
#  This is a CIF file.  CIF has been adopted by the International
#  Union of Crystallography as the standard for data archiving and
#  transmission.
#
#  For information on this file format, follow the CIF links at
#  http://www.iucr.org
##########################################################################

data_image0

_cell_length_a                          40.4436
_cell_length_b                          30.7693
_cell_length_c                          9.48305
_cell_angle_alpha                       89.8286
_cell_angle_beta                        90.043
_cell_angle_gamma                       89.9804
_symmetry_space_group_name_H-M          'P 1'
_space_group_name_Hall                  'P 1'
loop_
  _atom_site_type_symbol
  _atom_site_label
  _atom_site_fract_x
  _atom_site_fract_y
  _atom_site_fract_z
  _atom_site_charge
         C         C         0.47563   0.40667   0.24624   0.188981  
         C         C         0.44230   0.41984   0.23844   -0.068910           
         C         C         0.43177   0.46339   0.25379   0.187640  
         C         C         0.48668   0.36214   0.24770   -0.179368           
         C         C         0.39765   0.47643   0.26522   -0.181911           
         H         H         0.47110   0.33393   0.23385   0.125024  
         H         H         0.37661   0.45479   0.26440   0.127076  
         C         C         0.36365   0.36856   0.10253   -0.156280           
         C         C         0.39153   0.39472   0.11233   -0.130042           
         C         C         0.41578   0.38714   0.21644   0.073322  
         C         C         0.35885   0.33316   0.19475   0.194385  
         C         C         0.61833   0.67861   0.26861   -0.172319           
         C         C         0.59093   0.65159   0.28141   -0.129273           
         H         H         0.34467   0.37515   0.02409   0.118780  
         H         H         0.39471   0.42192   0.03997   0.112877  
         H         H         0.62044   0.70663   0.33763   0.116682  
         H         H         0.57273   0.65827   0.36279   0.115272  
         N         N         0.32817   0.31221   0.18401   -0.302562           
         C         C         0.31781   0.28548   0.28052   0.085220  
         C         C         0.28455   0.26741   0.27226   -0.009872           
         C         C         0.26138   0.28532   0.17772   -0.248992           
         C         C         0.27453   0.23261   0.36126   0.188555  
         H         H         0.33234   0.27638   0.37375   0.076627  
         O         O         0.29856   0.21442   0.44439   -0.170633           
         C         C         0.21203   0.67158   0.52818   -0.179211           
         H         H         0.27009   0.31177   0.11148   0.122270  
         H         H         0.23182   0.68257   0.59903   0.098252  
         H         H         0.22051   0.64329   0.46746   0.101849  
         H         H         0.19020   0.66288   0.59043   0.121863  
         C         C         0.52779   0.59448   0.23040   0.188687  
         C         C         0.56111   0.58122   0.22351   -0.068153           
         C         C         0.57182   0.53786   0.24308   0.185269  
         C         C         0.51662   0.63892   0.22321   -0.181365           
         C         C         0.60600   0.52493   0.25334   -0.179795           
         H         H         0.53211   0.66687   0.20244   0.124560  
         H         H         0.62703   0.54657   0.24933   0.127185  
         C         C         0.63965   0.63225   0.08458   -0.158428           
         C         C         0.61192   0.60586   0.09571   -0.125857           
         C         C         0.58755   0.61382   0.19865   0.071212  
         C         C         0.64406   0.66824   0.17403   0.196136  
         C         C         0.38452   0.32304   0.29031   -0.171427           
         C         C         0.41212   0.34979   0.30164   -0.125955           
         H         H         0.65876   0.62554   0.00706   0.119654  
         H         H         0.60894   0.57830   0.02517   0.110889  
         H         H         0.38214   0.29545   0.36146   0.116417  
         H         H         0.43017   0.34329   0.38408   0.110146  
         N         N         0.67451   0.68959   0.16183   -0.302410           
         C         C         0.68440   0.71723   0.25604   0.084669  
         C         C         0.71751   0.73557   0.24737   -0.012491           
         C         C         0.74073   0.71770   0.15354   -0.246353           
         C         C         0.72744   0.77028   0.33632   0.185235  
         H         H         0.66968   0.72675   0.34795   0.076263  
         O         O         0.70340   0.78777   0.42083   -0.169667           
         C         C         0.78827   0.32227   0.52246   -0.180635           
         H         H         0.73208   0.69129   0.08745   0.121652  
         H         H         0.76766   0.31179   0.58996   0.101706  
         H         H         0.78103   0.35133   0.46201   0.102792  
         H         H         0.80984   0.32954   0.58815   0.120927  
         C         C         0.53006   0.40771   0.27407   0.188012  
         C         C         0.56304   0.42216   0.28413   -0.067027           
         C         C         0.57272   0.46618   0.27280   0.187385  
         C         C         0.52006   0.36273   0.27131   -0.179817           
         C         C         0.60658   0.48076   0.26894   -0.182005           
         H         H         0.53624   0.33503   0.28435   0.125293  
         H         H         0.62820   0.46021   0.27640   0.128059  
         C         C         0.64149   0.36898   0.41758   -0.154749           
         C         C         0.61384   0.39566   0.40916   -0.126276           
         C         C         0.59001   0.38983   0.30255   0.073075  
         C         C         0.64629   0.33464   0.32179   0.194694  
         C         C         0.37932   0.67138   0.21668   -0.172121           
         C         C         0.40746   0.64559   0.20635   -0.128311           
         H         H         0.66019   0.37402   0.49835   0.117948  
         H         H         0.61035   0.42164   0.48532   0.105891  
         H         H         0.37500   0.69601   0.13631   0.116328  
         H         H         0.42407   0.65014   0.11746   0.108639  
         N         N         0.67652   0.31273   0.33367   -0.302991           
         C         C         0.68514   0.28205   0.24747   0.084861  
         C         C         0.71843   0.26421   0.25451   -0.011342           
         C         C         0.74192   0.28351   0.34418   -0.246325           
         C         C         0.72836   0.22899   0.16756   0.185427  
         H         H         0.66915   0.26931   0.16387   0.076287  
         O         O         0.70415   0.21023   0.08660   -0.172183           
         C         C         0.78701   0.67960   0.97345   -0.180490           
         H         H         0.73327   0.31054   0.40757   0.120505  
         H         H         0.76683   0.68980   0.90312   0.099735  
         H         H         0.77931   0.65101   0.03516   0.101779  
         H         H         0.80889   0.67170   0.91051   0.121827  
         C         C         0.47347   0.59381   0.26315   0.185692  
         C         C         0.44067   0.57936   0.28177   -0.063462           
         C         C         0.43104   0.53523   0.27672   0.187704  
         C         C         0.48333   0.63863   0.24918   -0.175952           
         C         C         0.39716   0.52066   0.27704   -0.179127           
         H         H         0.46709   0.66646   0.25638   0.124978  
         H         H         0.37558   0.54127   0.28387   0.128365  
         C         C         0.36247   0.63079   0.42276   -0.158124           
         C         C         0.39090   0.60560   0.41348   -0.126509           
         C         C         0.41352   0.61133   0.30205   0.073718  
         C         C         0.35555   0.66351   0.32275   0.194856  
         C         C         0.62144   0.32699   0.22024   -0.173918           
         C         C         0.59414   0.35432   0.21042   -0.126272           
         H         H         0.34465   0.62556   0.50694   0.117847  
         H         H         0.39569   0.58046   0.49184   0.104349  
         H         H         0.62425   0.30111   0.14335   0.116659  
         H         H         0.57651   0.34968   0.12514   0.109636  
         N         N         0.32457   0.68367   0.33571   -0.303876           
         C         C         0.31436   0.71251   0.24523   0.084281  
         C         C         0.28079   0.72945   0.25315   -0.011293           
         C         C         0.25775   0.71059   0.34622   -0.246290           
         C         C         0.27017   0.76412   0.16441   0.187272  
         H         H         0.32937   0.72452   0.15719   0.075865  
         O         O         0.29368   0.78262   0.07935   -0.170322           
         C         C         0.21505   0.32275   0.99546   -0.181726           
         H         H         0.26665   0.68415   0.41203   0.121229  
         H         H         0.23525   0.31312   0.92469   0.099217  
         H         H         0.22273   0.35086   0.05869   0.101668  
         H         H         0.19318   0.33108   0.93286   0.121433  
         C         C         0.02984   0.09356   0.27431   0.187186  
         C         C         0.06289   0.07905   0.27896   -0.068075           
         C         C         0.07245   0.03527   0.25961   0.187412  
         C         C         0.01975   0.13845   0.27938   -0.178857           
         C         C         0.10621   0.02117   0.24363   -0.183138           
         H         H         0.03583   0.16584   0.29925   0.124316  
         H         H         0.12764   0.04217   0.24210   0.127912  
         C         C         0.14271   0.12834   0.41178   -0.158209           
         C         C         0.11505   0.10185   0.40031   -0.125038           
         C         C         0.09004   0.11081   0.30066   0.071858  
         C         C         0.14654   0.16540   0.32582   0.197232  
         C         C         0.88123   0.82858   0.20805   -0.170994           
         C         C         0.90873   0.85567   0.20084   -0.127443           
         H         H         0.16211   0.12120   0.48784   0.119324  
         H         H         0.11239   0.07375   0.46931   0.110001  
         H         H         0.87836   0.80325   0.12927   0.116879  
         H         H         0.92633   0.85155   0.11527   0.109799  
         N         N         0.17660   0.18749   0.34049   -0.302154           
         C         C         0.18628   0.21607   0.24843   0.084919  
         C         C         0.21906   0.23526   0.26011   -0.011794           
         C         C         0.24214   0.21762   0.35556   -0.245701           
         C         C         0.22901   0.27008   0.17108   0.184731  
         H         H         0.17173   0.22563   0.15574   0.076638  
         O         O         0.20507   0.28756   0.08564   -0.169068           
         C         C         0.28336   0.81819   0.99155   -0.178730           
         H         H         0.23346   0.19118   0.42188   0.120996  
         H         H         0.26388   0.80825   0.91753   0.097010  
         H         H         0.27459   0.84564   0.05550   0.101876  
         H         H         0.30540   0.82774   0.93223   0.120446  
         C         C         0.97313   0.90819   0.26986   0.187460  
         C         C         0.94016   0.92267   0.27959   -0.065600           
         C         C         0.93050   0.96667   0.26868   0.186179  
         C         C         0.98297   0.86318   0.26602   -0.178127           
         C         C         0.89664   0.98125   0.26387   -0.181876           
         H         H         0.96657   0.83566   0.27767   0.125508  
         H         H         0.87504   0.96068   0.27078   0.128933  
         C         C         0.86154   0.86907   0.40904   -0.155441           
         C         C         0.88936   0.89551   0.40314   -0.127756           
         C         C         0.91309   0.89037   0.29595   0.074077  
         C         C         0.85638   0.83570   0.30998   0.194625  
         C         C         0.12055   0.17621   0.23265   -0.175573           
         C         C         0.09320   0.14913   0.21958   -0.127443           
         H         H         0.84299   0.87356   0.49065   0.116748  
         H         H         0.89301   0.92075   0.48178   0.106571  
         H         H         0.12235   0.20480   0.16533   0.117776  
         H         H         0.07470   0.15637   0.13966   0.114057  
         N         N         0.82598   0.81404   0.32077   -0.303613           
         C         C         0.81638   0.78555   0.22865   0.083984  
         C         C         0.78315   0.76737   0.23681   -0.010478           
         C         C         0.75981   0.78546   0.32996   -0.247510           
         C         C         0.77318   0.73251   0.14836   0.186236  
         H         H         0.83152   0.77484   0.13941   0.077529  
         O         O         0.79705   0.71445   0.06441   -0.169743           
         C         C         0.71421   0.17599   0.99343   -0.180441           
         H         H         0.76847   0.81208   0.39520   0.121477  
         H         H         0.73414   0.18684   0.92300   0.098084  
         H         H         0.72229   0.14718   0.05324   0.101683  
         H         H         0.69224   0.16824   0.93084   0.120879  
         C         C         0.97547   0.09510   0.24335   0.189774  
         C         C         0.94223   0.08197   0.22948   -0.065696           
         C         C         0.93146   0.03841   0.24181   0.185949  
         C         C         0.98650   0.13952   0.25315   -0.180841           
         C         C         0.89722   0.02545   0.24909   -0.180610           
         H         H         0.97106   0.16805   0.24300   0.125668  
         H         H         0.87617   0.04704   0.24405   0.127444  
         C         C         0.86439   0.13464   0.09006   -0.159365           
         C         C         0.89229   0.10849   0.09963   -0.127615           
         C         C         0.91587   0.11489   0.20708   0.072171  
         C         C         0.85908   0.16908   0.18491   0.196963  
         C         C         0.11754   0.82319   0.29723   -0.170057           
         C         C         0.09073   0.85141   0.30556   -0.125121           
         H         H         0.84570   0.12873   0.00991   0.118187  
         H         H         0.89589   0.08212   0.02492   0.111383  
         H         H         0.12023   0.79793   0.37682   0.116454  
         H         H         0.07343   0.84810   0.39267   0.109230  
         N         N         0.82832   0.18982   0.17339   -0.304460           
         C         C         0.81806   0.21709   0.26795   0.085990  
         C         C         0.78453   0.23422   0.26097   -0.010438           
         C         C         0.76107   0.21491   0.17108   -0.247403           
         C         C         0.77450   0.26922   0.34836   0.187468  
         H         H         0.83283   0.22736   0.35895   0.076080  
         O         O         0.79855   0.28794   0.42984   -0.169573           
         C         C         0.71312   0.82322   0.50974   -0.177400           
         H         H         0.76985   0.18830   0.10612   0.122456  
         H         H         0.72046   0.85154   0.44612   0.100982  
         H         H         0.69126   0.83110   0.57268   0.120487  
         H         H         0.73347   0.81386   0.58029   0.097895  
         C         C         0.02754   0.90691   0.24129   0.187833  
         C         C         0.06081   0.91987   0.22770   -0.066296           
         C         C         0.07158   0.96353   0.23413   0.186802  
         C         C         0.01637   0.86241   0.24325   -0.179623           
         C         C         0.10574   0.97694   0.23056   -0.181113           
         H         H         0.03188   0.83411   0.22926   0.125960  
         H         H         0.12684   0.95567   0.21954   0.127221  
         C         C         0.13738   0.86268   0.09365   -0.158418           
         C         C         0.11022   0.89024   0.10050   -0.126377           
         C         C         0.08688   0.88629   0.20988   0.072716  
         C         C         0.14215   0.82930   0.19359   0.194723  
         C         C         0.88405   0.17797   0.28481   -0.171532           
         C         C         0.91152   0.15100   0.29645   -0.126510           
         H         H         0.15581   0.86639   0.01111   0.116454  
         H         H         0.10696   0.91555   0.02131   0.107154  
         H         H         0.88121   0.20451   0.35926   0.116693  
         H         H         0.92887   0.15609   0.38241   0.108252  
         N         N         0.17221   0.80698   0.18270   -0.304125           
         C         C         0.18129   0.77735   0.27251   0.085335  
         C         C         0.21461   0.75954   0.26422   -0.009486           
         C         C         0.23757   0.77829   0.17061   -0.247920           
         C         C         0.22510   0.72470   0.35212   0.185718  
         H         H         0.16579   0.76564   0.35946   0.077455  
         O         O         0.20145   0.70598   0.43599   -0.171594           
         C         C         0.28897   0.17860   0.53276   -0.179367           
         H         H         0.22845   0.80468   0.10496   0.119725  
         H         H         0.26939   0.18806   0.60689   0.099557  
         H         H         0.28058   0.15094   0.46878   0.102314  
         H         H         0.31126   0.16972   0.59188   0.121081  
         N         N         0.50100   0.56717   0.25191   -0.380530           
         N         N         0.50253   0.43423   0.26033   -0.381208           
         N         N         0.00073   0.93458   0.25670   -0.381483           
         N         N         0.00233   0.06734   0.25546   -0.382041           
         N         N         0.45193   0.49973   0.26284   -0.380552           
         N         N         0.55175   0.50159   0.25718   -0.379077           
         N         N         0.05150   -0.00028  0.25130   -0.381339           
         N         N         0.95150   0.00206   0.25490   -0.379286           
         Co        Co        0.50193   0.50077   0.25785   0.644610  
         Co        Co        0.00148   0.00092   0.25617   0.649272  
         C         C         0.47116   0.40721   0.72534   0.187455  
         C         C         0.43814   0.42139   0.71292   -0.065997           
         C         C         0.42824   0.46537   0.72141   0.188153  
         C         C         0.48134   0.36234   0.73300   -0.181018           
         C         C         0.39431   0.47977   0.72147   -0.180229           
         H         H         0.46525   0.33446   0.72272   0.125675  
         H         H         0.37282   0.45916   0.71095   0.127409  
         C         C         0.35956   0.36771   0.58451   -0.157252           
         C         C         0.38756   0.39377   0.58913   -0.124884           
         C         C         0.41122   0.38887   0.69698   0.072115  
         C         C         0.35423   0.33479   0.68549   0.191411  
         C         C         0.61844   0.67453   0.78023   -0.171111           
         C         C         0.59126   0.64711   0.79169   -0.126714           
         H         H         0.34094   0.37229   0.50297   0.117758  
         H         H         0.39130   0.41882   0.50957   0.104713  
         H         H         0.62169   0.70004   0.85804   0.115985  
         H         H         0.57444   0.65109   0.88002   0.108470  
         N         N         0.32352   0.31394   0.67787   -0.300567           
         C         C         0.31475   0.28372   0.76608   0.083426  
         C         C         0.28115   0.26682   0.76160   -0.011060           
         C         C         0.25778   0.28633   0.67147   -0.247447           
         C         C         0.27098   0.23171   0.84908   0.185202  
         H         H         0.33092   0.27044   0.84838   0.077316  
         O         O         0.29509   0.21238   0.92934   -0.171011           
         C         C         0.21247   0.67585   0.01803   -0.180412           
         H         H         0.26666   0.31293   0.60631   0.119846  
         H         H         0.23173   0.68628   0.09235   0.097660  
         H         H         0.22168   0.64845   0.95508   0.101079  
         H         H         0.19042   0.66591   0.07668   0.121262  
         C         C         0.52677   0.59377   0.73241   0.188622  
         C         C         0.55974   0.57961   0.71705   -0.063138           
         C         C         0.56968   0.53560   0.72428   0.185061  
         C         C         0.51661   0.63850   0.74568   -0.179017           
         C         C         0.60365   0.52139   0.72730   -0.178170           
         H         H         0.53263   0.66652   0.73807   0.125273  
         H         H         0.62506   0.54233   0.72112   0.127132  
         C         C         0.63715   0.63383   0.57810   -0.158820           
         C         C         0.60956   0.60710   0.58789   -0.126614           
         C         C         0.58650   0.61217   0.69788   0.072598  
         C         C         0.64268   0.66746   0.67581   0.195059  
         C         C         0.37901   0.32772   0.78796   -0.172550           
         C         C         0.40666   0.35451   0.79394   -0.124737           
         H         H         0.65526   0.62919   0.49481   0.117886  
         H         H         0.60567   0.58149   0.51074   0.106156  
         H         H         0.37580   0.30286   0.86857   0.116451  
         H         H         0.42412   0.35053   0.88023   0.109313  
         N         N         0.67299   0.68919   0.66339   -0.302177           
         C         C         0.68220   0.71866   0.75301   0.084077  
         C         C         0.71550   0.73643   0.74576   -0.011603           
         C         C         0.73885   0.71756   0.65465   -0.245551           
         C         C         0.72558   0.77130   0.83377   0.188118  
         H         H         0.66669   0.73045   0.83958   0.076270  
         O         O         0.70151   0.79012   0.91485   -0.170571           
         C         C         0.78260   0.31936   0.00881   -0.184002           
         H         H         0.73001   0.69111   0.58923   0.120924  
         H         H         0.76254   0.30802   0.07769   0.099962  
         H         H         0.77437   0.34801   0.94869   0.102447  
         H         H         0.80417   0.32764   0.07317   0.122317  
         C         C         0.52557   0.40673   0.75447   0.187192  
         C         C         0.55885   0.42009   0.76316   -0.067059           
         C         C         0.56931   0.46371   0.74859   0.186513  
         C         C         0.51470   0.36212   0.75702   -0.177512           
         C         C         0.60342   0.47711   0.74015   -0.182146           
         H         H         0.53042   0.33416   0.77441   0.125737  
         H         H         0.62464   0.45575   0.74357   0.127943  
         C         C         0.63653   0.36562   0.90040   -0.157740           
         C         C         0.60937   0.39312   0.89000   -0.128274           
         C         C         0.58523   0.38703   0.78463   0.071747  
         C         C         0.64072   0.33027   0.80786   0.195726  
         C         C         0.38205   0.67843   0.72839   -0.175223           
         C         C         0.40945   0.65137   0.71520   -0.126376           
         H         H         0.65539   0.37095   0.98029   0.118547  
         H         H         0.60666   0.41999   0.96355   0.111434  
         H         H         0.38019   0.70713   0.66153   0.117886  
         H         H         0.42793   0.65870   0.63536   0.114761  
         N         N         0.67085   0.30805   0.82064   -0.303697           
         C         C         0.67987   0.27782   0.73342   0.085040  
         C         C         0.71328   0.26015   0.74114   -0.009421           
         C         C         0.73659   0.27960   0.83145   -0.246909           
         C         C         0.72366   0.22523   0.65369   0.185583  
         H         H         0.66427   0.26549   0.64783   0.076916  
         O         O         0.69986   0.20604   0.57163   -0.172231           
         C         C         0.78526   0.67848   0.47750   -0.176281           
         H         H         0.72761   0.30637   0.89515   0.121195  
         H         H         0.76626   0.69002   0.40347   0.097520  
         H         H         0.77582   0.65045   0.53743   0.101943  
         H         H         0.80749   0.66920   0.41895   0.119775  
         C         C         0.47241   0.59388   0.76424   0.187881  
         C         C         0.43913   0.58041   0.77093   -0.068066           
         C         C         0.42868   0.53700   0.75067   0.186214  
         C         C         0.48334   0.63838   0.77188   -0.178251           
         C         C         0.39460   0.52390   0.73710   -0.182563           
         H         H         0.46779   0.66613   0.79400   0.124038  
         H         H         0.37341   0.54534   0.73893   0.128006  
         C         C         0.36022   0.63073   0.90841   -0.160154           
         C         C         0.38788   0.60425   0.89672   -0.123840           
         C         C         0.41258   0.61288   0.79556   0.068808  
         C         C         0.35603   0.66741   0.82102   0.197003  
         C         C         0.61546   0.32233   0.70833   -0.172681           
         C         C         0.58857   0.35033   0.69674   -0.122328           
         H         H         0.34096   0.62355   0.98496   0.119262  
         H         H         0.39060   0.57615   0.96574   0.111189  
         H         H         0.61767   0.29560   0.63419   0.116232  
         H         H         0.57070   0.34537   0.61257   0.108051  
         N         N         0.32549   0.68861   0.83329   -0.301670           
         C         C         0.31499   0.71525   0.73673   0.085570  
         C         C         0.28167   0.73309   0.74511   -0.010705           
         C         C         0.25860   0.71486   0.83919   -0.245006           
         C         C         0.27140   0.76764   0.65562   0.187622  
         H         H         0.32932   0.72397   0.64266   0.077340  
         O         O         0.29527   0.78567   0.57140   -0.170630           
         C         C         0.21157   0.32643   0.49491   -0.178752           
         H         H         0.26755   0.68859   0.90573   0.121090  
         H         H         0.23048   0.31563   0.41946   0.099891  
         H         H         0.22114   0.35382   0.55701   0.102010  
         H         H         0.18931   0.33647   0.43768   0.119948  
         C         C         0.02604   0.09409   0.74812   0.186806  
         C         C         0.05899   0.08036   0.76776   -0.064237           
         C         C         0.06929   0.03647   0.76452   0.185715  
         C         C         0.01561   0.13879   0.73726   -0.177992           
         C         C         0.10330   0.02248   0.77095   -0.180617           
         H         H         0.03154   0.16681   0.74760   0.125984  
         H         H         0.12459   0.04342   0.78212   0.128727  
         C         C         0.13503   0.13528   0.91564   -0.155728           
         C         C         0.10730   0.10891   0.90413   -0.127969           
         C         C         0.08537   0.11327   0.78950   0.072096  
         C         C         0.14170   0.16805   0.81561   0.192936  
         C         C         0.88050   0.82490   0.71219   -0.171519           
         C         C         0.90802   0.85180   0.70122   -0.126341           
         H         H         0.15249   0.13097   0.00181   0.115868  
         H         H         0.10257   0.08396   0.98314   0.106956  
         H         H         0.87799   0.79785   0.63948   0.116667  
         H         H         0.92598   0.84591   0.61818   0.110869  
         N         N         0.17213   0.18927   0.83114   -0.302176           
         C         C         0.18147   0.22006   0.74615   0.083045  
         C         C         0.21490   0.23731   0.75470   -0.009035           
         C         C         0.23825   0.21786   0.84533   -0.245091           
         C         C         0.22512   0.27244   0.66742   0.185773  
         H         H         0.16582   0.23351   0.66230   0.076949  
         O         O         0.20125   0.29148   0.58531   -0.170370           
         C         C         0.28539   0.82062   0.47995   -0.180195           
         H         H         0.22947   0.19111   0.91015   0.121463  
         H         H         0.26520   0.81056   0.40961   0.100606  
         H         H         0.27777   0.84922   0.54128   0.102156  
         H         H         0.30735   0.82838   0.41722   0.120957  
         C         C         0.97181   0.90716   0.75961   0.187766  
         C         C         0.93863   0.92096   0.76674   -0.067786           
         C         C         0.92846   0.96462   0.75024   0.185955  
         C         C         0.98234   0.86243   0.76159   -0.178820           
         C         C         0.89442   0.97820   0.74032   -0.183034           
         H         H         0.96641   0.83460   0.77729   0.125109  
         H         H         0.87313   0.95700   0.74395   0.128027  
         C         C         0.85992   0.86941   0.90225   -0.157848           
         C         C         0.88771   0.89575   0.89264   -0.127736           
         C         C         0.91187   0.88856   0.78825   0.072594  
         C         C         0.85513   0.83424   0.80970   0.194018  
         C         C         0.11856   0.17444   0.70584   -0.169812           
         C         C         0.09121   0.14736   0.69292   -0.126283           
         H         H         0.84105   0.87547   0.98141   0.118474  
         H         H         0.89098   0.92259   0.96588   0.111287  
         H         H         0.12303   0.19877   0.62467   0.115435  
         H         H         0.07515   0.15072   0.60148   0.107630  
         N         N         0.82469   0.81284   0.82199   -0.303009           
         C         C         0.81476   0.78469   0.72942   0.084072  
         C         C         0.78154   0.76669   0.73850   -0.011280           
         C         C         0.75825   0.78539   0.83034   -0.247063           
         C         C         0.77147   0.73171   0.65090   0.186182  
         H         H         0.82949   0.77447   0.63833   0.076811  
         O         O         0.79557   0.71262   0.57067   -0.171565           
         C         C         0.71012   0.17074   0.48302   -0.177916           
         H         H         0.76707   0.81189   0.89573   0.121088  
         H         H         0.72855   0.18146   0.40520   0.100430  
         H         H         0.72024   0.14384   0.54631   0.102329  
         H         H         0.68769   0.16003   0.42845   0.119699  
         C         C         0.97173   0.09381   0.71496   0.186340  
         C         C         0.93857   0.08001   0.70664   -0.066707           
         C         C         0.92839   0.03627   0.72098   0.187674  
         C         C         0.98229   0.13854   0.71158   -0.179232           
         C         C         0.89436   0.02236   0.72519   -0.180972           
         H         H         0.96641   0.16628   0.69296   0.125910  
         H         H         0.87298   0.04330   0.71727   0.127957  
         C         C         0.85935   0.13156   0.57662   -0.159466           
         C         C         0.88756   0.10591   0.58254   -0.123379           
         C         C         0.91169   0.11246   0.68753   0.071141  
         C         C         0.85415   0.16549   0.67347   0.194250  
         C         C         0.11724   0.82378   0.78393   -0.172376           
         C         C         0.09000   0.85116   0.79593   -0.125773           
         H         H         0.84035   0.12592   0.49756   0.118946  
         H         H         0.89118   0.07999   0.50625   0.106536  
         H         H         0.11936   0.79609   0.85489   0.116925  
         H         H         0.07201   0.84500   0.87873   0.110292  
         N         N         0.82329   0.18598   0.66383   -0.304114           
         C         C         0.81330   0.21408   0.75626   0.082324  
         C         C         0.77968   0.23092   0.74880   -0.011404           
         C         C         0.75644   0.21155   0.65805   -0.247125           
         C         C         0.76934   0.26593   0.83560   0.184814  
         H         H         0.82831   0.22532   0.84532   0.080684  
         O         O         0.79334   0.28551   0.91534   -0.169213           
         C         C         0.71195   0.82389   0.00922   -0.181852           
         H         H         0.76546   0.18515   0.59284   0.121006  
         H         H         0.73117   0.81216   0.08187   0.098970  
         H         H         0.72115   0.85229   0.95052   0.102388  
         H         H         0.68992   0.83293   0.06939   0.120800  
         C         C         0.02633   0.90694   0.73458   0.188044  
         C         C         0.05954   0.92074   0.72874   -0.065353           
         C         C         0.06950   0.96454   0.74347   0.184587  
         C         C         0.01575   0.86223   0.73946   -0.179931           
         C         C         0.10337   0.97820   0.75991   -0.180012           
         H         H         0.03164   0.83415   0.72934   0.124817  
         H         H         0.12460   0.95687   0.76340   0.127190  
         C         C         0.13855   0.86923   0.59689   -0.155915           
         C         C         0.11103   0.89601   0.60749   -0.127151           
         C         C         0.08648   0.88842   0.71010   0.070795  
         C         C         0.14277   0.83321   0.68715   0.194031  
         C         C         0.87948   0.17437   0.77186   -0.171843           
         C         C         0.90746   0.14809   0.77911   -0.127310           
         H         H         0.15757   0.87548   0.51845   0.118902  
         H         H         0.10816   0.92339   0.53565   0.110596  
         H         H         0.87662   0.20042   0.84818   0.117837  
         H         H         0.92550   0.15351   0.86237   0.111400  
         N         N         0.17281   0.81093   0.67307   -0.302499           
         C         C         0.18292   0.78320   0.76714   0.085084  
         C         C         0.21586   0.76428   0.75605   -0.012314           
         C         C         0.23892   0.78234   0.66150   -0.246677           
         C         C         0.22603   0.72943   0.84483   0.185077  
         H         H         0.16869   0.77427   0.86131   0.077406  
         O         O         0.20208   0.71106   0.92836   -0.168893           
         C         C         0.28475   0.17897   0.02588   -0.181005           
         H         H         0.23017   0.80888   0.59569   0.121743  
         H         H         0.26549   0.19093   0.09757   0.098215  
         H         H         0.27568   0.15019   0.96921   0.102658  
         H         H         0.30685   0.17051   0.08687   0.120753  
         N         N         0.49938   0.56688   0.74267   -0.381049           
         N         N         0.49857   0.43401   0.73707   -0.380037           
         N         N         0.99906   0.93411   0.74453   -0.380920           
         N         N         0.99888   0.06696   0.73481   -0.379553           
         N         N         0.44899   0.50089   0.73856   -0.379929           
         N         N         0.54897   0.49987   0.73709   -0.379376           
         N         N         0.04892   0.00055   0.74808   -0.378687           
         N         N         0.94896   0.00052   0.73717   -0.380146           
         Co        Co        0.49903   0.50057   0.73620   0.645090  
         Co        Co        0.99902   0.00073   0.73919   0.645222 

