
##########################################################################
#               Crystallographic Information Format file
#               Produced by PyCifRW module
#
#  This is a CIF file.  CIF has been adopted by the International
#  Union of Crystallography as the standard for data archiving and
#  transmission.
#
#  For information on this file format, follow the CIF links at
#  http://www.iucr.org
##########################################################################

data_image0

_cell_length_a                          38.9874
_cell_length_b                          33.1392
_cell_length_c                          10.3378
_cell_angle_alpha                       90.2757
_cell_angle_beta                        91.6271
_cell_angle_gamma                       90.1037
_symmetry_space_group_name_H-M          'P 1'
_space_group_name_Hall                  'P 1'
loop_
  _atom_site_type_symbol
  _atom_site_label
  _atom_site_fract_x
  _atom_site_fract_y
  _atom_site_fract_z
  _atom_site_charge
         C         C         0.35867   0.37088   0.36116   -0.156694           
         C         C         0.63805   0.63043   0.35276   -0.157075           
         C         C         0.64250   0.37051   0.14491   -0.160827           
         C         C         0.35898   0.62754   0.14128   -0.155174           
         C         C         0.14038   0.13028   0.14893   -0.158930           
         C         C         0.86121   0.86906   0.14365   -0.160632           
         C         C         0.85703   0.12845   0.35487   -0.158500           
         C         C         0.14178   0.87591   0.36023   -0.161929           
         C         C         0.38588   0.39791   0.37513   -0.129794           
         C         C         0.61090   0.60352   0.36364   -0.128488           
         C         C         0.61492   0.39704   0.13742   -0.132036           
         C         C         0.38648   0.60102   0.13513   -0.131561           
         C         C         0.11302   0.10340   0.13732   -0.128047           
         C         C         0.88880   0.89548   0.13515   -0.129216           
         C         C         0.88396   0.10106   0.36649   -0.132213           
         C         C         0.11465   0.90264   0.37367   -0.126994           
         H         H         0.34050   0.37309   0.27974   0.119619  
         H         H         0.65540   0.62827   0.27257   0.117760  
         H         H         0.66101   0.37199   0.22548   0.120426  
         H         H         0.34073   0.62548   0.21860   0.118518  
         H         H         0.15922   0.12775   0.22801   0.119036  
         H         H         0.84367   0.87120   0.22330   0.121929  
         H         H         0.83878   0.12675   0.27345   0.119185  
         H         H         0.16005   0.87976   0.28371   0.123755  
         H         H         0.38930   0.42152   0.30378   0.113129  
         H         H         0.60672   0.58003   0.29092   0.111888  
         H         H         0.61150   0.41945   0.21322   0.113264  
         H         H         0.39012   0.57797   0.20887   0.112869  
         H         H         0.11018   0.07956   0.20828   0.113875  
         H         H         0.89306   0.91852   0.20928   0.112054  
         H         H         0.88705   0.07780   0.29308   0.113424  
         H         H         0.11129   0.92759   0.30644   0.113658  
         C         C         0.87888   0.83462   0.44560   -0.171259           
         C         C         0.11960   0.16390   0.45277   -0.173906           
         C         C         0.12442   0.83914   0.05136   -0.173535           
         C         C         0.87753   0.16092   0.04627   -0.173968           
         C         C         0.62230   0.66311   0.04773   -0.173190           
         C         C         0.37880   0.33615   0.06577   -0.172870           
         C         C         0.37666   0.66200   0.44529   -0.172440           
         C         C         0.62237   0.34005   0.45063   -0.176335           
         C         C         0.90598   0.86172   0.43604   -0.126584           
         C         C         0.09259   0.13636   0.44559   -0.127684           
         C         C         0.09727   0.86605   0.06166   -0.125780           
         C         C         0.90453   0.13364   0.05685   -0.127100           
         C         C         0.59516   0.63618   0.05911   -0.126679           
         C         C         0.40597   0.36340   0.07627   -0.126754           
         C         C         0.40388   0.63502   0.43972   -0.129919           
         C         C         0.59454   0.36624   0.44254   -0.127826           
         H         H         0.87539   0.81153   0.37123   0.115526  
         H         H         0.12226   0.18568   0.37528   0.117678  
         H         H         0.12839   0.81663   0.12650   0.115824  
         H         H         0.87535   0.18448   0.11921   0.115804  
         H         H         0.62614   0.68645   0.12109   0.115747  
         H         H         0.37597   0.31351   0.14057   0.116238  
         H         H         0.37317   0.68402   0.36839   0.118355  
         H         H         0.62501   0.31689   0.37672   0.117499  
         H         H         0.92270   0.85964   0.35385   0.110239  
         H         H         0.07498   0.13655   0.36204   0.111439  
         H         H         0.08084   0.86451   0.14481   0.110447  
         H         H         0.92265   0.13585   0.13859   0.112699  
         H         H         0.57867   0.63846   0.14195   0.110503  
         H         H         0.42347   0.36217   0.16001   0.112530  
         H         H         0.42082   0.63603   0.35805   0.111833  
         H         H         0.57623   0.36372   0.36145   0.112311  
         N         N         0.17518   0.18380   0.07338   -0.304399           
         N         N         0.82547   0.81543   0.06495   -0.301637           
         N         N         0.82380   0.18411   0.42830   -0.300636           
         N         N         0.17552   0.81932   0.42667   -0.300260           
         N         N         0.32407   0.31640   0.43285   -0.302288           
         N         N         0.67363   0.68452   0.42826   -0.302801           
         N         N         0.67763   0.31829   0.06166   -0.304516           
         N         N         0.32412   0.68117   0.06042   -0.301803           
         C         C         0.18528   0.20688   0.47557   0.069106  
         C         C         0.81361   0.79174   0.47147   0.068427  
         C         C         0.81348   0.20603   0.01547   0.067451  
         C         C         0.18800   0.79413   0.01895   0.068134  
         C         C         0.31331   0.29330   0.03691   0.068289  
         C         C         0.68805   0.70380   0.02269   0.070767  
         C         C         0.68934   0.30090   0.46901   0.069503  
         C         C         0.31148   0.70533   0.46627   0.068813  
         C         C         0.21739   0.22947   0.48916   0.055956  
         C         C         0.78123   0.77031   0.48539   0.057541  
         C         C         0.78191   0.22923   -0.00020  0.056253  
         C         C         0.21944   0.77100   0.00309   0.055912  
         C         C         0.28135   0.27065   0.02016   0.059717  
         C         C         0.71966   0.72665   0.00777   0.058158  
         C         C         0.72099   0.27759   0.48208   0.058355  
         C         C         0.27976   0.72807   0.47986   0.058123  
         C         C         0.24224   0.21954   0.09841   -0.111380           
         C         C         0.76030   0.77646   0.09342   -0.113224           
         C         C         0.75902   0.22653   0.39527   -0.112082           
         C         C         0.24050   0.77954   0.39782   -0.114601           
         C         C         0.25754   0.27794   0.40185   -0.113393           
         C         C         0.74045   0.71995   0.40424   -0.115866           
         C         C         0.74410   0.28106   0.08248   -0.113253           
         C         C         0.25821   0.71861   0.08250   -0.113695           
         C         C         0.22698   0.25642   0.39123   -0.126724           
         C         C         0.77123   0.74061   0.39365   -0.130217           
         C         C         0.77428   0.25908   0.09235   -0.128467           
         C         C         0.22825   0.74074   0.09366   -0.131418           
         C         C         0.27282   0.24088   0.11102   -0.131444           
         C         C         0.73019   0.75454   0.10447   -0.130605           
         C         C         0.72948   0.24978   0.38427   -0.131983           
         C         C         0.27041   0.75731   0.38660   -0.131605           
         C         C         0.47127   0.41367   0.50367   0.187762  
         C         C         0.52709   0.58774   0.49276   0.186610  
         C         C         0.52904   0.41287   0.01761   0.187064  
         C         C         0.47183   0.58599   0.01757   0.187093  
         C         C         0.02715   0.08688   0.00763   0.187983  
         C         C         0.97305   0.91204   0.00938   0.187034  
         C         C         0.96988   0.08619   0.49435   0.185357  
         C         C         0.02909   0.91430   0.48920   0.185406  
         C         C         0.40933   0.39527   0.48078   0.073914  
         C         C         0.58855   0.60621   0.46779   0.074687  
         C         C         0.59108   0.39524   0.03288   0.076739  
         C         C         0.40999   0.60362   0.03468   0.075603  
         C         C         0.08885   0.10634   0.03403   0.074452  
         C         C         0.91133   0.89305   0.03134   0.075002  
         C         C         0.90770   0.10320   0.47149   0.074711  
         C         C         0.09106   0.89776   0.47304   0.071025  
         C         C         0.43677   0.42622   0.49795   -0.069926           
         C         C         0.56142   0.57524   0.48401   -0.067574           
         C         C         0.56339   0.42595   0.02090   -0.069994           
         C         C         0.43753   0.57299   0.02331   -0.070664           
         C         C         0.06179   0.07496   0.01647   -0.071257           
         C         C         0.93855   0.92412   0.01695   -0.069483           
         C         C         0.93557   0.07273   0.48596   -0.067491           
         C         C         0.06334   0.92782   0.49044   -0.068006           
         C         C         0.35367   0.34018   0.45245   0.192761  
         C         C         0.64410   0.66104   0.44542   0.194721  
         C         C         0.64758   0.34140   0.04779   0.193708  
         C         C         0.35371   0.65763   0.04716   0.192826  
         C         C         0.14492   0.16105   0.05754   0.194894  
         C         C         0.85497   0.83905   0.04907   0.194608  
         C         C         0.85255   0.15907   0.44782   0.195110  
         C         C         0.14644   0.84328   0.44557   0.196259  
         C         C         0.42610   0.46678   0.50607   0.184604  
         C         C         0.57226   0.53473   0.49179   0.185535  
         C         C         0.57379   0.46658   0.01171   0.183637  
         C         C         0.42702   0.53227   0.01564   0.186188  
         C         C         0.07298   0.03459   0.00742   0.184706  
         C         C         0.92738   0.96452   0.00900   0.186836  
         C         C         0.92560   0.03185   0.49362   0.185166  
         C         C         0.07340   0.96843   0.50697   0.183472  
         C         C         0.48244   0.37220   0.50415   -0.177936           
         C         C         0.51595   0.62920   0.49049   -0.178187           
         C         C         0.51833   0.37118   0.01916   -0.180547           
         C         C         0.48259   0.62765   0.01763   -0.177515           
         C         C         0.01557   0.12821   0.00698   -0.180107           
         C         C         0.98453   0.87071   0.00621   -0.179355           
         C         C         0.98032   0.12796   0.49473   -0.178436           
         C         C         0.01877   0.87257   0.47962   -0.175498           
         C         C         0.39074   0.47931   0.51102   -0.178432           
         C         C         0.60767   0.52222   0.49312   -0.178651           
         C         C         0.60902   0.47961   0.00678   -0.177803           
         C         C         0.39166   0.51931   0.00827   -0.179667           
         C         C         0.10843   0.02265   0.00005   -0.178358           
         C         C         0.89184   0.97658   0.00617   -0.179372           
         C         C         0.89051   0.01821   0.49702   -0.178167           
         C         C         0.10858   0.98185   0.51795   -0.179738           
         H         H         0.17274   0.20740   0.37888   0.073860  
         H         H         0.82624   0.78722   0.37865   0.070743  
         H         H         0.82741   0.21038   0.10866   0.072315  
         H         H         0.17560   0.79025   0.11241   0.070260  
         H         H         0.32594   0.29130   0.13321   0.071213  
         H         H         0.67696   0.70512   0.11939   0.070356  
         H         H         0.67692   0.30057   0.37205   0.070724  
         H         H         0.32369   0.70789   0.37198   0.070909  
         H         H         0.23551   0.19643   0.16765   0.112469  
         H         H         0.76854   0.79816   0.16724   0.110400  
         H         H         0.76533   0.20467   0.32086   0.110792  
         H         H         0.23333   0.80243   0.32711   0.112128  
         H         H         0.26491   0.29893   0.32701   0.111673  
         H         H         0.73262   0.69675   0.33467   0.111514  
         H         H         0.73802   0.30403   0.15368   0.111713  
         H         H         0.26517   0.69521   0.15178   0.110828  
         H         H         0.21017   0.26016   0.30621   0.111515  
         H         H         0.78794   0.73405   0.31366   0.114975  
         H         H         0.79237   0.26460   0.17277   0.111901  
         H         H         0.21128   0.73494   0.17342   0.114909  
         H         H         0.29044   0.23490   0.19225   0.115646  
         H         H         0.71440   0.75870   0.18863   0.113790  
         H         H         0.71239   0.24645   0.29972   0.114778  
         H         H         0.28701   0.76239   0.30524   0.115554  
         H         H         0.46580   0.34610   0.49618   0.126620  
         H         H         0.53240   0.65514   0.47824   0.128053  
         H         H         0.53533   0.34545   0.02676   0.127787  
         H         H         0.46592   0.65343   0.02894   0.127800  
         H         H         0.03185   0.15457   0.01841   0.127063  
         H         H         0.96815   0.84443   0.01279   0.127691  
         H         H         0.96319   0.15344   0.48399   0.127327  
         H         H         0.03578   0.84728   0.46536   0.126310  
         N         N         0.44841   0.49900   0.01067   -0.381628           
         N         N         0.55223   0.49976   0.00242   -0.381757           
         N         N         0.05208   0.00069   -0.00031  -0.382020           
         N         N         0.94812   0.99824   -0.00187  -0.382611           
         Co        Co        0.50042   0.49951   0.00819   0.647519  
         Co        Co        0.00014   -0.00066  -0.00204  0.648238  
         N         N         0.50010   0.56104   0.00648   -0.382816           
         N         N         0.50054   0.43775   0.01075   -0.381201           
         N         N         0.00096   0.93781   0.00118   -0.381750           
         N         N         -0.00078  0.06107   0.99592   -0.382607           
         H         H         0.13089   0.96250   0.51682   0.129318  
         H         H         0.87014   0.95635   0.01119   0.129452  
         H         H         0.86811   0.03742   0.49353   0.128711  
         H         H         0.13020   0.04295   0.00157   0.129291  
         H         H         0.62955   0.54212   0.48662   0.128943  
         H         H         0.63118   0.46002   0.01200   0.128971  
         H         H         0.36871   0.45938   0.50896   0.129752  
         H         H         0.36956   0.53899   0.00779   0.129703  
         C         C         0.36012   0.36777   0.86567   -0.157165           
         C         C         0.63850   0.62928   0.85106   -0.161175           
         C         C         0.64222   0.37370   0.64688   -0.159474           
         C         C         0.35944   0.63116   0.64467   -0.158590           
         C         C         0.13863   0.13448   0.65595   -0.159068           
         C         C         0.86185   0.86813   0.64152   -0.156548           
         C         C         0.85687   0.12636   0.85269   -0.155028           
         C         C         0.14043   0.87144   0.85270   -0.154893           
         C         C         0.38732   0.39488   0.87633   -0.130640           
         C         C         0.61131   0.60244   0.86265   -0.128773           
         C         C         0.61440   0.39986   0.63846   -0.129397           
         C         C         0.38677   0.60438   0.63906   -0.128737           
         C         C         0.11157   0.10706   0.64854   -0.129464           
         C         C         0.88909   0.89497   0.63208   -0.132451           
         C         C         0.88400   0.09927   0.86321   -0.128897           
         C         C         0.11322   0.89826   0.86318   -0.132657           
         H         H         0.34217   0.36869   0.78329   0.116761  
         H         H         0.65540   0.62739   0.76941   0.121109  
         H         H         0.66080   0.37583   0.72706   0.119890  
         H         H         0.34201   0.63030   0.72485   0.118558  
         H         H         0.15671   0.13450   0.73806   0.116644  
         H         H         0.84449   0.87003   0.72175   0.119208  
         H         H         0.83808   0.12415   0.77317   0.118655  
         H         H         0.15731   0.87283   0.77089   0.116981  
         H         H         0.39100   0.41740   0.80168   0.111916  
         H         H         0.60668   0.57920   0.78937   0.112248  
         H         H         0.61092   0.42282   0.71261   0.112541  
         H         H         0.39098   0.58243   0.71575   0.111734  
         H         H         0.10824   0.08530   0.72573   0.111570  
         H         H         0.89336   0.91798   0.70624   0.113033  
         H         H         0.88680   0.07554   0.79113   0.112494  
         H         H         0.10852   0.92088   0.78880   0.111832  
         C         C         0.87842   0.83526   0.94828   -0.173597           
         C         C         0.11959   0.16566   0.95851   -0.172020           
         C         C         0.12190   0.83714   0.54121   -0.175812           
         C         C         0.87696   0.16217   0.55080   -0.173170           
         C         C         0.62078   0.66506   0.54652   -0.171971           
         C         C         0.37816   0.33612   0.55470   -0.172742           
         C         C         0.37814   0.66160   0.94987   -0.174779           
         C         C         0.62277   0.33822   0.94618   -0.172205           
         C         C         0.90588   0.86194   0.93967   -0.128931           
         C         C         0.09228   0.13864   0.94706   -0.126831           
         C         C         0.09498   0.86417   0.55505   -0.126136           
         C         C         0.90377   0.13458   0.56236   -0.126169           
         C         C         0.59370   0.63799   0.55731   -0.129854           
         C         C         0.40526   0.36337   0.56862   -0.129944           
         C         C         0.40555   0.63487   0.94384   -0.126488           
         C         C         0.59517   0.36479   0.93902   -0.127765           
         H         H         0.87484   0.81199   0.87451   0.115627  
         H         H         0.12166   0.18959   0.88751   0.115191  
         H         H         0.12414   0.81155   0.60640   0.115780  
         H         H         0.87476   0.18594   0.62302   0.114877  
         H         H         0.62416   0.68871   0.61909   0.116395  
         H         H         0.37567   0.31215   0.62540   0.115371  
         H         H         0.37546   0.68500   0.87684   0.118675  
         H         H         0.62537   0.31565   0.87036   0.115296  
         H         H         0.92278   0.85965   0.85799   0.111988  
         H         H         0.07390   0.14156   0.86652   0.111717  
         H         H         0.07711   0.86002   0.63283   0.112706  
         H         H         0.92164   0.13659   0.64487   0.111073  
         H         H         0.57678   0.64045   0.63880   0.112898  
         H         H         0.42308   0.36079   0.65106   0.112591  
         H         H         0.42340   0.63732   0.86527   0.111202  
         H         H         0.57695   0.36290   0.85749   0.113019  
         N         N         0.17342   0.18664   0.57148   -0.304551           
         N         N         0.82567   0.81518   0.56254   -0.303431           
         N         N         0.82336   0.18135   0.92661   -0.304460           
         N         N         0.17635   0.81807   0.92937   -0.302697           
         N         N         0.32494   0.31508   0.94412   -0.302084           
         N         N         0.67479   0.68270   0.92804   -0.302711           
         N         N         0.67743   0.32104   0.56558   -0.302211           
         N         N         0.32357   0.68321   0.55982   -0.302792           
         C         C         0.18642   0.20599   0.98079   0.068871  
         C         C         0.81224   0.79458   0.96970   0.071052  
         C         C         0.81170   0.20525   0.52230   0.070877  
         C         C         0.18796   0.79710   0.51929   0.070020  
         C         C         0.31149   0.29600   0.52696   0.070750  
         C         C         0.68665   0.70620   0.52197   0.069730  
         C         C         0.68849   0.29652   0.96688   0.071445  
         C         C         0.31184   0.70269   0.96579   0.069552  
         C         C         0.21894   0.22764   0.99509   0.057495  
         C         C         0.78090   0.77116   0.98488   0.056681  
         C         C         0.78121   0.23046   0.50464   0.057339  
         C         C         0.21887   0.77310   0.50269   0.056732  
         C         C         0.27964   0.27306   0.51091   0.057372  
         C         C         0.71858   0.72848   0.50702   0.058934  
         C         C         0.72042   0.27383   0.97934   0.058402  
         C         C         0.28040   0.72600   0.97993   0.057043  
         C         C         0.23961   0.22439   0.59779   -0.110699           
         C         C         0.75921   0.77906   0.58762   -0.111887           
         C         C         0.75832   0.22210   0.89628   -0.110833           
         C         C         0.24171   0.77852   0.90081   -0.112781           
         C         C         0.25827   0.27834   0.91581   -0.115471           
         C         C         0.74041   0.72106   0.89977   -0.114767           
         C         C         0.74351   0.28211   0.59020   -0.112872           
         C         C         0.25790   0.72126   0.58389   -0.112910           
         C         C         0.22763   0.25712   0.90349   -0.130997           
         C         C         0.77046   0.74311   0.88847   -0.129295           
         C         C         0.77300   0.25882   0.60127   -0.130521           
         C         C         0.22801   0.74352   0.59508   -0.128418           
         C         C         0.27008   0.24600   0.60859   -0.132826           
         C         C         0.72851   0.75829   0.59862   -0.131973           
         C         C         0.72821   0.24427   0.88593   -0.128126           
         C         C         0.27157   0.75618   0.88913   -0.130471           
         C         C         0.47224   0.41242   0.00537   0.186959  
         C         C         0.52821   0.58636   0.99637   0.186304  
         C         C         0.52810   0.41432   0.51808   0.185006  
         C         C         0.47072   0.58733   0.51355   0.188597  
         C         C         0.02662   0.08735   0.51706   0.184285  
         C         C         0.97252   0.91268   0.50329   0.187133  
         C         C         0.97044   0.08551   0.98626   0.187221  
         C         C         0.02959   0.91338   0.99122   0.186928  
         C         C         0.41038   0.39380   0.98337   0.076181  
         C         C         0.58955   0.60474   0.96870   0.073007  
         C         C         0.59035   0.39713   0.53472   0.074845  
         C         C         0.40917   0.60521   0.53490   0.075868  
         C         C         0.08831   0.10699   0.54200   0.073990  
         C         C         0.91121   0.89309   0.52706   0.077132  
         C         C         0.90827   0.10216   0.96618   0.075132  
         C         C         0.09138   0.89651   0.96900   0.078174  
         C         C         0.43778   0.42492   -0.00265  -0.068769           
         C         C         0.56248   0.57376   0.98561   -0.066644           
         C         C         0.56244   0.42750   0.52180   -0.069178           
         C         C         0.43653   0.57433   0.52390   -0.070327           
         C         C         0.06120   0.07543   0.52970   -0.066530           
         C         C         0.93805   0.92459   0.51315   -0.068850           
         C         C         0.93621   0.07189   0.97998   -0.069234           
         C         C         0.06372   0.92695   0.98315   -0.070409           
         C         C         0.35471   0.33865   0.96166   0.193980  
         C         C         0.64519   0.65932   0.94517   0.195048  
         C         C         0.64736   0.34408   0.55129   0.195150  
         C         C         0.35326   0.65980   0.54666   0.192332  
         C         C         0.14376   0.16271   0.55696   0.196313  
         C         C         0.85556   0.83813   0.54696   0.192984  
         C         C         0.85273   0.15730   0.94468   0.193943  
         C         C         0.14706   0.84190   0.94757   0.193938  
         C         C         0.42709   0.46549   0.00170   0.184179  
         C         C         0.57332   0.53322   0.99206   0.184833  
         C         C         0.57275   0.46813   0.51173   0.184382  
         C         C         0.42600   0.53359   0.52083   0.187319  
         C         C         0.07246   0.03504   0.52711   0.183820  
         C         C         0.92678   0.96506   0.50929   0.184769  
         C         C         0.92626   0.03111   0.98952   0.186773  
         C         C         0.07383   0.96781   0.98893   0.186945  
         C         C         0.48328   0.37089   0.00803   -0.176596           
         C         C         0.51725   0.62788   0.00019   -0.178391           
         C         C         0.51748   0.37261   0.51716   -0.178280           
         C         C         0.48128   0.62898   0.50720   -0.179360           
         C         C         0.01523   0.12870   0.51261   -0.178177           
         C         C         0.98398   0.87146   0.49289   -0.180507           
         C         C         0.98070   0.12737   0.98865   -0.177846           
         C         C         0.01929   0.87153   0.99135   -0.177392           
         C         C         0.39171   0.47810   0.00117   -0.178785           
         C         C         0.60876   0.52072   0.99542   -0.177991           
         C         C         0.60797   0.48110   0.50398   -0.178339           
         C         C         0.39068   0.52055   0.51888   -0.178652           
         C         C         0.10801   0.02300   0.52868   -0.177571           
         C         C         0.89122   0.97704   0.50589   -0.178665           
         C         C         0.89116   0.01766   0.99568   -0.178926           
         C         C         0.10898   0.98148   0.98970   -0.180057           
         H         H         0.17288   0.20918   0.88653   0.071187  
         H         H         0.82311   0.79395   0.87258   0.071182  
         H         H         0.82281   0.20464   0.62141   0.070385  
         H         H         0.17678   0.79594   0.61584   0.071424  
         H         H         0.32327   0.29567   0.62505   0.070719  
         H         H         0.67530   0.70805   0.61806   0.071626  
         H         H         0.67497   0.29433   0.87218   0.070911  
         H         H         0.32358   0.70402   0.87027   0.072161  
         H         H         0.23225   0.20326   0.67228   0.109919  
         H         H         0.76704   0.80228   0.65711   0.110736  
         H         H         0.76431   0.19888   0.82571   0.111867  
         H         H         0.23487   0.80213   0.83209   0.112226  
         H         H         0.26502   0.30141   0.84643   0.112219  
         H         H         0.73229   0.69913   0.82648   0.111026  
         H         H         0.73713   0.30395   0.66458   0.111882  
         H         H         0.26514   0.69843   0.65475   0.110973  
         H         H         0.20990   0.26329   0.82276   0.115213  
         H         H         0.78620   0.73893   0.80418   0.111854  
         H         H         0.79010   0.26226   0.68572   0.113670  
         H         H         0.21134   0.73825   0.67603   0.111916  
         H         H         0.28698   0.24210   0.69322   0.114299  
         H         H         0.71185   0.76481   0.67885   0.115721  
         H         H         0.71022   0.23885   0.80517   0.112359  
         H         H         0.28854   0.76199   0.80944   0.115254  
         H         H         0.46641   0.34491   0.00317   0.126289  
         H         H         0.53378   0.65390   0.99140   0.127624  
         H         H         0.53448   0.34689   0.52399   0.127257  
         H         H         0.46446   0.65479   0.51319   0.127161  
         H         H         0.03167   0.15496   0.52191   0.127568  
         H         H         0.96771   0.84501   0.49377   0.126961  
         H         H         0.96361   0.15294   0.97909   0.126705  
         H         H         0.03628   0.84598   0.98136   0.127413  
         N         N         0.44740   0.50034   0.51312   -0.382554           
         N         N         0.55119   0.50128   0.50352   -0.381186           
         N         N         0.05157   0.00126   0.51479   -0.379556           
         N         N         0.94752   0.99896   0.50192   -0.382168           
         Co        Co        0.49926   0.50064   0.50839   0.646221  
         Co        Co        -0.00052  0.00020   0.50731   0.646267  
         N         N         0.49908   0.56242   0.50570   -0.383682           
         N         N         0.49952   0.43910   0.51121   -0.381207           
         N         N         0.00045   0.93858   0.50145   -0.379842           
         N         N         0.99857   0.06167   0.50614   -0.381357           
         H         H         0.13129   0.96231   0.98307   0.129781  
         H         H         0.86951   0.95673   0.50866   0.128791  
         H         H         0.86882   0.03698   0.99295   0.129237  
         H         H         0.12981   0.04324   0.53558   0.129341  
         H         H         0.63069   0.54066   0.99076   0.128902  
         H         H         0.63014   0.46152   0.50614   0.129425  
         H         H         0.36968   0.45819   0.99628   0.129956  
         H         H         0.36863   0.54025   0.52188   0.129457 

