
##########################################################################
#               Crystallographic Information Format file
#               Produced by PyCifRW module
#
#  This is a CIF file.  CIF has been adopted by the International
#  Union of Crystallography as the standard for data archiving and
#  transmission.
#
#  For information on this file format, follow the CIF links at
#  http://www.iucr.org
##########################################################################

data_image0

_cell_length_a                          43.8279
_cell_length_b                          43.7926
_cell_length_c                          8.09115
_cell_angle_alpha                       90.4918
_cell_angle_beta                        89.9829
_cell_angle_gamma                       120.181
_symmetry_space_group_name_H-M          'P 1'
_space_group_name_Hall                  'P 1'
loop_
  _atom_site_type_symbol
  _atom_site_label
  _atom_site_fract_x
  _atom_site_fract_y
  _atom_site_fract_z
  _atom_site_charge
         C         C         0.43892   0.52336   0.29004   -0.145603           
         C         C         0.42615   0.54605   0.25758   -0.046192           
         H         H         0.46364   0.52835   0.23524   0.102901  
         H         H         0.44137   0.56901   0.18017   0.105201  
         C         C         0.48745   0.38876   0.04724   -0.128944           
         C         C         0.50889   0.37467   0.08419   -0.062128           
         H         H         0.46314   0.37223   0.48165   0.103921  
         H         H         0.50323   0.34972   0.02731   0.105498  
         C         C         0.52378   0.43935   0.22048   -0.145396           
         C         C         0.54609   0.42604   0.25206   -0.049357           
         H         H         0.52896   0.46403   0.27819   0.103781  
         H         H         0.56889   0.44078   0.33261   0.103549  
         C         C         0.38746   0.48700   0.45459   -0.132986           
         C         C         0.37396   0.50889   0.41661   -0.058471           
         H         H         0.37418   0.46508   0.03028   0.104260  
         H         H         0.34878   0.50332   0.46859   0.106777  
         H         H         0.52005   0.48933   0.05223   0.106765  
         H         H         0.48769   0.51855   0.45203   0.107555  
         C         C         0.49163   0.47428   0.03285   -0.141449           
         C         C         0.47254   0.49023   0.47242   -0.138689           
         C         C         0.43596   0.47219   0.43960   0.030193  
         C         C         0.42001   0.49352   0.39030   0.081160  
         C         C         0.39326   0.53914   0.31936   -0.241715           
         B         B         0.37995   0.56493   0.28805   0.586524  
         C         C         0.35198   0.40723   0.34903   -0.112592           
         C         C         0.31521   0.34365   0.40356   -0.139301           
         C         C         0.34631   0.34421   -0.00254  0.078810  
         C         C         0.37804   0.37689   0.00090   -0.027296           
         C         C         0.38036   0.40828   0.43074   0.023356  
         C         C         0.40998   0.38213   0.07086   0.024105  
         C         C         0.40931   0.35384   0.15043   -0.111317           
         C         C         0.37744   0.32082   0.15252   -0.090480           
         C         C         0.34674   0.31563   0.07697   -0.139724           
         C         C         0.41736   0.43551   0.46659   -0.015156           
         C         C         0.43680   0.41932   0.03966   -0.016848           
         C         C         0.47347   0.43780   0.06660   0.033797  
         C         C         0.49428   0.42125   0.11577   0.077557  
         C         C         0.53906   0.39337   0.18456   -0.239913           
         B         B         0.56509   0.38008   0.21114   0.594781  
         H         H         0.35391   0.43066   0.29398   0.105073  
         H         H         0.29800   0.37417   0.26865   0.101898  
         H         H         0.29003   0.31922   0.39096   0.104926  
         H         H         0.43260   0.35641   0.21107   0.104454  
         H         H         0.37733   0.29899   0.21610   0.101087  
         H         H         0.32293   0.28978   0.07922   0.104335  
         C         C         0.32572   0.63016   0.24879   0.032130  
         C         C         0.36166   0.65815   0.24972   0.031786  
         C         C         0.26155   0.61066   0.23336   -0.230747           
         C         C         0.23550   0.61914   0.25051   0.174091  
         C         C         0.24335   0.65385   0.28178   0.172575  
         C         C         0.27753   0.68158   0.28281   -0.230191           
         H         H         0.25448   0.58335   0.21336   0.134727  
         O         O         0.19923   0.59685   0.25017   -0.340407           
         O         O         0.21222   0.65415   0.30849   -0.341859           
         H         H         0.28285   0.70828   0.30511   0.134912  
         C         C         0.65846   0.36183   0.24516   0.030767  
         C         C         0.63046   0.32605   0.26067   0.031700  
         C         C         0.72302   0.40531   0.22313   -0.228774           
         C         C         0.75702   0.41160   0.22134   0.173312  
         C         C         0.76466   0.38441   0.24162   0.172487  
         C         C         0.73838   0.34970   0.25156   -0.229746           
         H         H         0.71824   0.42719   0.21058   0.134499  
         O         O         0.78820   0.44332   0.20013   -0.342119           
         O         O         0.80093   0.39851   0.24090   -0.340411           
         H         H         0.74505   0.32911   0.26518   0.134421  
         C         C         0.31975   0.37465   0.33569   -0.090766           
         C         C         0.47873   0.91612   0.26428   -0.141816           
         C         C         0.45578   0.88034   0.23389   -0.046852           
         H         H         0.47420   0.93565   0.20457   0.101073  
         H         H         0.43315   0.87223   0.15261   0.104889  
         C         C         0.61208   0.09979   0.04870   -0.134142           
         C         C         0.62512   0.13523   0.08851   -0.055372           
         H         H         0.62632   0.09329   0.46169   0.103617  
         H         H         0.65056   0.15510   0.03985   0.106245  
         C         C         0.55957   0.08415   0.20618   -0.146318           
         C         C         0.57211   0.11963   0.24202   -0.046391           
         H         H         0.53449   0.06415   0.25692   0.103737  
         H         H         0.55645   0.12714   0.31851   0.106324  
         C         C         0.51431   0.90183   0.43876   -0.135396           
         C         C         0.49202   0.86610   0.40412   -0.054548           
         H         H         0.53529   0.91048   -0.00267  0.105518  
         H         H         0.49707   0.84672   0.46211   0.104783  
         H         H         0.51181   0.03200   0.03241   0.106890  
         H         H         0.48248   0.96970   0.42603   0.106960  
         C         C         0.52651   0.01838   0.01221   -0.139032           
         C         C         0.51072   0.98332   0.45037   -0.138423           
         C         C         0.52918   0.96515   0.41990   0.033173  
         C         C         0.50817   0.92761   0.36926   0.078829  
         C         C         0.46191   0.85453   0.30349   -0.244676           
         B         B         0.43556   0.81500   0.27896   0.589106  
         C         C         0.59505   0.94661   0.34849   -0.109197           
         C         C         0.65750   0.97289   0.42911   -0.139285           
         C         C         0.65369   0.99867   -0.00237  0.079288  
         C         C         0.62207   -0.00038  0.99041   -0.027023           
         C         C         0.59319   0.97393   0.42696   0.025922  
         C         C         0.61762   0.02695   0.06037   0.023193  
         C         C         0.64574   0.05349   0.14862   -0.110157           
         C         C         0.67760   0.05264   0.16207   -0.091802           
         C         C         0.68196   0.02637   0.08836   -0.137814           
         C         C         0.56568   0.98359   0.45313   -0.017824           
         C         C         0.58101   0.01786   0.02202   -0.015132           
         C         C         0.56286   0.03629   0.05104   0.030637  
         C         C         0.57901   0.07346   0.10700   0.080831  
         C         C         0.60517   0.14596   0.18362   -0.242313           
         B         B         0.61856   0.18521   0.21621   0.585419  
         H         H         0.57244   0.92531   0.28476   0.107444  
         H         H         0.62854   0.92514   0.28770   0.101046  
         H         H         0.68172   0.97171   0.42994   0.103171  
         H         H         0.64391   0.07475   0.20915   0.103861  
         H         H         0.69910   0.07324   0.23465   0.103778  
         H         H         0.70684   0.02672   0.10104   0.104907  
         C         C         0.36983   0.69480   0.25682   0.032130  
         C         C         0.34192   0.70271   0.25358   0.031973  
         C         C         0.38924   0.65007   0.24602   -0.228255           
         C         C         0.38038   0.61526   0.25352   0.172078  
         C         C         0.34527   0.58805   0.26798   0.173975  
         C         C         0.31777   0.59457   0.26132   -0.230662           
         H         H         0.41679   0.67047   0.23938   0.134261  
         O         O         0.40246   0.60118   0.25928   -0.340075           
         O         O         0.34438   0.55625   0.29122   -0.342079           
         H         H         0.29084   0.57289   0.27133   0.134125  
         C         C         0.63848   0.29747   0.26567   0.031925  
         C         C         0.67402   0.30529   0.24400   0.032006  
         C         C         0.59483   0.31824   0.25826   -0.228689           
         C         C         0.58833   0.34566   0.24159   0.171554  
         C         C         0.61581   0.38077   0.23375   0.173205  
         C         C         0.65055   0.38944   0.23435   -0.227770           
         H         H         0.57292   0.29133   0.26336   0.133848  
         O         O         0.55625   0.34458   0.22560   -0.343543           
         O         O         0.60186   0.40281   0.21759   -0.341380           
         H         H         0.67106   0.41690   0.22406   0.133987  
         C         C         0.62747   0.94663   0.35059   -0.091604           
         C         C         0.08421   0.55894   0.28410   -0.145863           
         C         C         0.11991   0.57206   0.25293   -0.046546           
         H         H         0.06457   0.53421   0.22672   0.104539  
         H         H         0.12786   0.55709   0.17360   0.104577  
         C         C         0.90080   0.51320   0.04739   -0.133131           
         C         C         0.86530   0.49103   0.08432   -0.056512           
         H         H         0.90969   0.53579   0.46713   0.103743  
         H         H         0.84564   0.49646   0.03197   0.106996  
         C         C         0.91587   0.47690   0.21148   -0.143823           
         C         C         0.88031   0.45401   0.24342   -0.046332           
         H         H         0.93566   0.47207   0.26663   0.101060  
         H         H         0.87249   0.43108   0.32104   0.105110  
         C         C         0.09892   0.61007   0.45395   -0.132139           
         C         C         0.13450   0.62377   0.41829   -0.056521           
         H         H         0.09209   0.62531   0.03070   0.104844  
         H         H         0.15398   0.64881   0.47396   0.106112  
         H         H         0.96820   0.48076   0.04254   0.104550  
         H         H         0.02993   0.50977   0.45309   0.106097  
         C         C         0.98201   0.50915   0.02374   -0.138145           
         C         C         0.01679   0.52501   0.47147   -0.140046           
         C         C         0.03555   0.56145   0.43617   0.030568  
         C         C         0.07296   0.57749   0.38663   0.080383  
         C         C         0.14583   0.60482   0.31917   -0.242216           
         B         B         0.18524   0.61865   0.29076   0.586623  
         C         C         0.05560   0.64566   0.34950   -0.110978           
         C         C         0.03025   0.68327   0.41498   -0.138562           
         C         C         0.00162   0.65609   0.00150   0.079510  
         C         C         0.00107   0.62366   -0.00051  -0.028525           
         C         C         0.02810   0.61741   0.43052   0.024535  
         C         C         0.97352   0.59191   0.06676   0.025940  
         C         C         0.94639   0.59344   0.14784   -0.111629           
         C         C         0.94683   0.62604   0.15611   -0.090615           
         C         C         0.97327   0.65660   0.08431   -0.138952           
         C         C         0.01773   0.58027   0.46336   -0.016138           
         C         C         0.98286   0.56439   0.03303   -0.015482           
         C         C         0.96417   0.52770   0.05962   0.031565  
         C         C         0.92686   0.50670   0.11097   0.079729  
         C         C         0.85429   0.46067   0.18070   -0.243091           
         B         B         0.81502   0.43470   0.20969   0.586496  
         H         H         0.07677   0.64346   0.29148   0.103652  
         H         H         0.07733   0.69984   0.27443   0.101260  
         H         H         0.03159   0.70870   0.40692   0.104994  
         H         H         0.92497   0.57036   0.20624   0.104917  
         H         H         0.92566   0.62690   0.22234   0.101974  
         H         H         0.97253   0.68103   0.09237   0.104950  
         C         C         0.30526   0.67410   0.25907   0.031496  
         C         C         0.29726   0.63828   0.24501   0.032470  
         C         C         0.35000   0.73840   0.24606   -0.229432           
         C         C         0.38483   0.76456   0.25384   0.173695  
         C         C         0.41196   0.75680   0.27292   0.172619  
         C         C         0.40538   0.72266   0.27186   -0.231096           
         H         H         0.32953   0.74528   0.23358   0.134694  
         O         O         0.39917   0.80088   0.25156   -0.340108           
         O         O         0.44394   0.78801   0.29077   -0.343107           
         H         H         0.42704   0.71758   0.28549   0.134220  
         C         C         0.70278   0.34189   0.24489   0.031661  
         C         C         0.69506   0.36989   0.23877   0.031399  
         C         C         0.68124   0.27747   0.21727   -0.232051           
         C         C         0.65363   0.24332   0.22352   0.173752  
         C         C         0.61939   0.23557   0.26312   0.173881  
         C         C         0.61107   0.26177   0.28226   -0.230721           
         H         H         0.70753   0.28268   0.18699   0.135209  
         O         O         0.65367   0.21221   0.19201   -0.342303           
         O         O         0.59722   0.19920   0.26553   -0.340446           
         H         H         0.58402   0.25483   0.30664   0.135256  
         C         C         0.05601   0.67823   0.34154   -0.089802           
         C         C         0.44123   0.52475   0.79194   -0.144784           
         C         C         0.42881   0.54785   0.76207   -0.048250           
         H         H         0.46625   0.53008   0.73925   0.101007  
         H         H         0.44457   0.57139   0.68891   0.105217  
         C         C         0.48567   0.38748   0.56256   -0.133766           
         C         C         0.50764   0.37422   0.60390   -0.057592           
         H         H         0.46580   0.37511   0.95990   0.102021  
         H         H         0.50128   0.34823   0.55798   0.105616  
         C         C         0.52355   0.44094   0.71475   -0.143059           
         C         C         0.54627   0.42834   0.75056   -0.048196           
         H         H         0.52931   0.46653   0.76338   0.101433  
         H         H         0.56977   0.44443   0.82506   0.105228  
         C         C         0.38889   0.48741   0.94892   -0.134261           
         C         C         0.37577   0.50974   0.91313   -0.057250           
         H         H         0.37327   0.46513   0.53878   0.102953  
         H         H         0.35040   0.50394   0.96360   0.105139  
         H         H         0.51807   0.48804   0.54792   0.106001  
         H         H         0.48936   0.51959   0.95500   0.105914  
         C         C         0.48961   0.47305   0.53048   -0.140226           
         C         C         0.47434   0.49122   0.97418   -0.139191           
         C         C         0.43777   0.47300   0.93907   0.029853  
         C         C         0.42184   0.49430   0.88821   0.082878  
         C         C         0.39575   0.54082   0.82201   -0.240637           
         B         B         0.38257   0.56688   0.79439   0.589572  
         C         C         0.35365   0.40662   0.84967   -0.111585           
         C         C         0.31749   0.34330   0.91261   -0.137242           
         C         C         0.34364   0.34374   0.48842   0.079406  
         C         C         0.37564   0.37619   0.49546   -0.027087           
         C         C         0.38225   0.40860   0.93326   0.025301  
         C         C         0.40724   0.38091   0.56786   0.026756  
         C         C         0.40558   0.35227   0.64863   -0.110072           
         C         C         0.37339   0.31947   0.64758   -0.090485           
         C         C         0.34329   0.31472   0.56759   -0.139645           
         C         C         0.41923   0.43631   0.96693   -0.016473           
         C         C         0.43460   0.41813   0.53912   -0.016247           
         C         C         0.47138   0.43664   0.56672   0.031224  
         C         C         0.49281   0.42092   0.61917   0.079237  
         C         C         0.53869   0.39455   0.69691   -0.238899           
         B         B         0.56449   0.38129   0.73236   0.589029  
         H         H         0.35516   0.42952   0.79056   0.104453  
         H         H         0.29979   0.37244   0.77027   0.101554  
         H         H         0.29237   0.31870   0.90396   0.104879  
         H         H         0.42825   0.35432   0.71341   0.104104  
         H         H         0.37255   0.29744   0.71272   0.100882  
         H         H         0.31934   0.28895   0.56662   0.104564  
         C         C         0.32646   0.63032   0.75107   0.031886  
         C         C         0.36217   0.65887   0.75326   0.031498  
         C         C         0.26192   0.60954   0.72940   -0.232370           
         C         C         0.23527   0.61711   0.75022   0.175737  
         C         C         0.24244   0.65105   0.79504   0.172175  
         C         C         0.27630   0.67913   0.80482   -0.230733           
         H         H         0.25565   0.58276   0.70071   0.135383  
         O         O         0.19897   0.59457   0.74266   -0.340946           
         O         O         0.21104   0.65046   0.82450   -0.341840           
         H         H         0.28086   0.70515   0.83783   0.134810  
         C         C         0.65739   0.36220   0.76102   0.032600  
         C         C         0.62923   0.32631   0.77018   0.031848  
         C         C         0.72196   0.40546   0.72748   -0.229142           
         C         C         0.75578   0.41144   0.71349   0.173700  
         C         C         0.76316   0.38391   0.72403   0.175127  
         C         C         0.73675   0.34930   0.73606   -0.230443           
         H         H         0.71741   0.42760   0.72381   0.134407  
         O         O         0.78708   0.44314   0.69215   -0.343236           
         O         O         0.79933   0.39764   0.71666   -0.341599           
         H         H         0.74325   0.32850   0.74318   0.135083  
         C         C         0.32164   0.37371   0.83971   -0.090008           
         C         C         0.47417   0.91693   0.76603   -0.142351           
         C         C         0.45073   0.88115   0.73786   -0.049909           
         H         H         0.46852   0.93645   0.71472   0.104314  
         H         H         0.42656   0.87305   0.66814   0.105383  
         C         C         0.61136   0.10022   0.54579   -0.133723           
         C         C         0.62365   0.13553   0.58526   -0.057224           
         H         H         0.62701   0.09235   0.96695   0.103450  
         H         H         0.64859   0.15578   0.53400   0.105715  
         C         C         0.55932   0.08345   0.70886   -0.144059           
         C         C         0.57114   0.11882   0.74476   -0.045641           
         H         H         0.53474   0.06296   0.76161   0.099818  
         H         H         0.55534   0.12572   0.82362   0.105398  
         C         C         0.51244   0.90252   0.91826   -0.132839           
         C         C         0.48999   0.86689   0.88278   -0.059054           
         H         H         0.53612   0.91004   0.52493   0.100050  
         H         H         0.49619   0.84749   0.93095   0.105194  
         H         H         0.51217   0.03083   0.52895   0.104759  
         H         H         0.48087   0.97128   0.92710   0.104202  
         C         C         0.52732   0.01757   0.51215   -0.137339           
         C         C         0.50919   0.98433   0.94835   -0.138432           
         C         C         0.52700   0.96575   0.91178   0.031068  
         C         C         0.50526   0.92839   0.85940   0.078250  
         C         C         0.45825   0.85536   0.79535   -0.238498           
         B         B         0.43209   0.81569   0.77556   0.590070  
         C         C         0.59192   0.94610   0.83001   -0.112067           
         C         C         0.65381   0.97006   0.91421   -0.138981           
         C         C         0.65674   0.00165   0.50754   0.079879  
         C         C         0.62454   0.00142   0.50024   -0.026242           
         C         C         0.59056   0.97321   0.91370   0.025210  
         C         C         0.61931   0.02856   0.56597   0.024859  
         C         C         0.64723   0.05622   0.65014   -0.111489           
         C         C         0.67982   0.05678   0.66236   -0.091914           
         C         C         0.68493   0.03065   0.59244   -0.137241           
         C         C         0.56361   0.98351   0.94335   -0.015512           
         C         C         0.58240   0.01830   0.52776   -0.016672           
         C         C         0.56357   0.03616   0.55293   0.031484  
         C         C         0.57892   0.07338   0.60724   0.081451  
         C         C         0.60360   0.14570   0.68313   -0.242618           
         B         B         0.61661   0.18502   0.71339   0.585474  
         H         H         0.56926   0.92570   0.76296   0.102632  
         H         H         0.62437   0.92382   0.76327   0.100484  
         H         H         0.67754   0.96800   0.91502   0.104582  
         H         H         0.64464   0.07731   0.70759   0.104201  
         H         H         0.70133   0.07848   0.73009   0.101967  
         H         H         0.71038   0.03215   0.60344   0.103149  
         C         C         0.36943   0.69528   0.75792   0.031114  
         C         C         0.34085   0.70207   0.77079   0.031918  
         C         C         0.39031   0.65158   0.75602   -0.230028           
         C         C         0.38216   0.61694   0.76293   0.174182  
         C         C         0.34720   0.58915   0.77057   0.172599  
         C         C         0.31924   0.59496   0.76261   -0.229374           
         H         H         0.41772   0.67251   0.75711   0.134508  
         O         O         0.40474   0.60347   0.77429   -0.341969           
         O         O         0.34684   0.55757   0.79153   -0.343351           
         H         H         0.29247   0.57295   0.77221   0.134243  
         C         C         0.63702   0.29754   0.76899   0.031285  
         C         C         0.67238   0.30527   0.74119   0.031888  
         C         C         0.59363   0.31868   0.76707   -0.229071           
         C         C         0.58733   0.34637   0.75933   0.172607  
         C         C         0.61490   0.38151   0.76219   0.174689  
         C         C         0.64964   0.39002   0.76330   -0.228642           
         H         H         0.57169   0.29172   0.76368   0.134218  
         O         O         0.55544   0.34562   0.74130   -0.345027           
         O         O         0.60114   0.40382   0.75036   -0.341459           
         H         H         0.67027   0.41755   0.76155   0.133957  
         C         C         0.62375   0.94505   0.83100   -0.091097           
         C         C         0.08300   0.55806   0.78365   -0.144030           
         C         C         0.11843   0.56974   0.75363   -0.044877           
         H         H         0.06279   0.53342   0.72808   0.099642  
         H         H         0.12562   0.55385   0.67658   0.105614  
         C         C         0.90132   0.51329   0.54794   -0.131682           
         C         C         0.86553   0.49135   0.58010   -0.057905           
         H         H         0.90851   0.53519   0.96397   0.102799  
         H         H         0.84655   0.49758   0.52655   0.105936  
         C         C         0.91466   0.47541   0.70895   -0.143140           
         C         C         0.87879   0.45273   0.73575   -0.048167           
         H         H         0.93385   0.46977   0.76479   0.101069  
         H         H         0.87030   0.42920   0.80985   0.104704  
         C         C         0.09923   0.61028   0.94774   -0.134883           
         C         C         0.13463   0.62251   0.91355   -0.054463           
         H         H         0.09102   0.62411   0.53927   0.102401  
         H         H         0.15472   0.64753   0.96704   0.105518  
         H         H         0.96879   0.47991   0.55009   0.106543  
         H         H         0.02915   0.51051   0.94398   0.106803  
         C         C         0.98243   0.50826   0.52995   -0.140450           
         C         C         0.01627   0.52590   0.96474   -0.139853           
         C         C         0.03524   0.56245   0.93178   0.031651  
         C         C         0.07259   0.57781   0.88274   0.081019  
         C         C         0.14506   0.60227   0.81833   -0.244601           
         B         B         0.18440   0.61539   0.79282   0.585614  
         C         C         0.05560   0.64709   0.85078   -0.110270           
         C         C         0.03048   0.68472   0.92071   -0.138552           
         C         C         0.00168   0.65495   0.49878   0.078555  
         C         C         0.00120   0.62256   0.49903   -0.027535           
         C         C         0.02803   0.61865   0.93048   0.025287  
         C         C         0.97383   0.59101   0.56875   0.025028  
         C         C         0.94711   0.59285   0.65199   -0.111487           
         C         C         0.94755   0.62547   0.65843   -0.090201           
         C         C         0.97358   0.65571   0.58261   -0.139323           
         C         C         0.01757   0.58139   0.96055   -0.017271           
         C         C         0.98309   0.56340   0.53638   -0.015731           
         C         C         0.96435   0.52672   0.56374   0.031113  
         C         C         0.92676   0.50587   0.61199   0.078583  
         C         C         0.85336   0.46016   0.67144   -0.239912           
         B         B         0.81375   0.43418   0.69452   0.587813  
         H         H         0.07664   0.64492   0.79106   0.104267  
         H         H         0.07779   0.70167   0.78137   0.102129  
         H         H         0.03221   0.71037   0.91632   0.105154  
         H         H         0.92604   0.57001   0.71340   0.104221  
         H         H         0.92668   0.62656   0.72622   0.101974  
         H         H         0.97277   0.68012   0.58870   0.105528  
         C         C         0.30455   0.67279   0.77497   0.032325  
         C         C         0.29735   0.63749   0.74901   0.033019  
         C         C         0.34766   0.73737   0.77439   -0.229130           
         C         C         0.38211   0.76433   0.77037   0.174175  
         C         C         0.41020   0.75774   0.76396   0.172316  
         C         C         0.40471   0.72400   0.75501   -0.228250           
         H         H         0.32649   0.74337   0.77806   0.134646  
         O         O         0.39521   0.80047   0.77425   -0.340027           
         O         O         0.44184   0.78962   0.76702   -0.344175           
         H         H         0.42712   0.71994   0.74686   0.133730  
         C         C         0.70126   0.34182   0.74048   0.033029  
         C         C         0.69386   0.37008   0.74483   0.030569  
         C         C         0.67922   0.27736   0.70891   -0.230204           
         C         C         0.65161   0.24323   0.71691   0.172322  
         C         C         0.61767   0.23552   0.76254   0.174042  
         C         C         0.60965   0.26183   0.78710   -0.230198           
         H         H         0.70526   0.28242   0.67448   0.134437  
         O         O         0.65149   0.21209   0.68366   -0.341852           
         O         O         0.59557   0.19911   0.76629   -0.340603           
         H         H         0.58286   0.25504   0.81727   0.135304  
         C         C         0.05625   0.67982   0.84629   -0.091747 

