
##########################################################################
#               Crystallographic Information Format file
#               Produced by PyCifRW module
#
#  This is a CIF file.  CIF has been adopted by the International
#  Union of Crystallography as the standard for data archiving and
#  transmission.
#
#  For information on this file format, follow the CIF links at
#  http://www.iucr.org
##########################################################################

data_image0

_cell_length_a                          38.843
_cell_length_b                          38.9337
_cell_length_c                          8.02806
_cell_angle_alpha                       67.2459
_cell_angle_beta                        122.014
_cell_angle_gamma                       120.337
_symmetry_space_group_name_H-M          'P 1'
_space_group_name_Hall                  'P 1'
loop_
  _atom_site_type_symbol
  _atom_site_label
  _atom_site_fract_x
  _atom_site_fract_y
  _atom_site_fract_z
  _atom_site_charge
         C         C         0.30531   0.68255   -0.00208  0.359937  
         C         C         0.31392   0.62327   0.98202   0.356050  
         C         C         0.37662   0.69224   0.01169   0.355709  
         C         C         0.69267   0.31656   0.01863   0.356954  
         C         C         0.68273   0.37518   0.03139   0.356459  
         C         C         0.62118   0.30526   0.00881   0.354216  
         C         C         0.34904   0.70840   0.00318   -0.244813           
         C         C         0.28900   0.63989   0.99278   -0.247541           
         C         C         0.35745   0.65013   0.98906   -0.252794           
         C         C         0.64882   0.29025   0.01052   -0.238072           
         C         C         0.70822   0.35915   0.02125   -0.249928           
         C         C         0.63909   0.34782   0.02276   -0.251500           
         C         C         0.36412   0.74914   0.00582   0.125249  
         C         C         0.24908   0.61276   0.00221   0.126464  
         C         C         0.38337   0.63603   0.98418   0.113186  
         C         C         0.63497   0.24997   0.00588   0.117270  
         C         C         0.74825   0.38620   0.01137   0.127127  
         C         C         0.61229   0.36093   0.02659   0.119175  
         C         C         0.59974   0.41519   0.04097   0.216179  
         C         C         0.57878   0.18117   -0.00044  0.210670  
         C         C         0.81487   0.39835   0.99473   0.218114  
         C         C         0.39304   0.57960   0.97357   0.215853  
         C         C         0.42185   0.81662   0.01414   0.213334  
         C         C         0.18234   0.59982   0.02091   0.212818  
         C         C         0.62168   0.45167   0.11369   -0.182383           
         C         C         0.53617   0.15759   0.99132   -0.184285           
         C         C         0.84673   0.38186   0.08003   -0.179309           
         C         C         0.37622   0.53723   -0.00051  -0.176428           
         C         C         0.46705   0.83707   0.12206   -0.181545           
         C         C         0.16062   0.61831   0.03166   -0.188662           
         C         C         0.59811   0.47047   0.10299   -0.106288           
         C         C         0.51805   0.11623   0.99512   -0.114070           
         C         C         0.88719   0.40513   0.07205   -0.113053           
         C         C         0.39926   0.51757   0.01266   -0.117824           
         C         C         0.48456   0.87841   0.11652   -0.111489           
         C         C         0.11871   0.59653   0.02522   -0.110897           
         C         C         0.55159   0.45337   0.01827   0.106504  
         C         C         0.54183   0.09695   0.00520   0.104433  
         C         C         0.89689   0.44569   0.97510   0.110489  
         C         C         0.43983   0.53986   -0.00290  0.109092  
         C         C         0.45741   0.90088   0.00052   0.109675  
         C         C         0.09690   0.55527   0.00679   0.105579  
         C         C         0.53943   0.42216   0.46319   -0.105430           
         C         C         0.57916   0.12074   0.50566   -0.108192           
         C         C         0.86871   0.46054   0.39460   -0.107578           
         C         C         0.46428   0.58969   0.46073   -0.102973           
         C         C         0.40331   0.88029   0.36432   -0.108055           
         C         C         0.12352   0.53407   0.50113   -0.109813           
         C         C         0.56212   0.40252   0.47303   -0.184920           
         C         C         0.59964   0.16194   0.50806   -0.190222           
         C         C         0.82790   0.43756   0.39994   -0.187557           
         C         C         0.44073   0.60851   0.45038   -0.191594           
         C         C         0.38873   0.83911   0.37478   -0.189031           
         C         C         0.16548   0.55649   0.50794   -0.189187           
         C         C         0.52759   0.47191   0.01083   -0.071749           
         C         C         0.52360   0.05528   0.00431   -0.080332           
         C         C         0.93856   0.46983   0.97245   -0.082407           
         C         C         0.46339   0.52062   0.00701   -0.077758           
         C         C         0.47517   0.94271   -0.00151  -0.083910           
         C         C         0.05398   0.53306   0.99551   -0.081246           
         C         C         0.50697   0.48762   0.01088   -0.040928           
         C         C         0.50808   0.01892   0.00190   -0.037064           
         C         C         0.97559   0.49072   0.97708   -0.035374           
         C         C         0.48433   0.50485   0.00971   -0.039697           
         C         C         0.49096   0.97916   -0.00047  -0.033715           
         C         C         0.01639   0.51310   0.98466   -0.037100           
         O         O         0.28235   0.69654   0.00095   -0.476577           
         O         O         0.29798   0.58621   0.96890   -0.474495           
         O         O         0.41623   0.71427   0.03571   -0.478262           
         O         O         0.71614   0.30257   0.01978   -0.469726           
         O         O         0.69800   0.41206   0.04561   -0.490548           
         O         O         0.58266   0.28194   -0.00316  -0.475840           
         N         N         0.40510   0.77478   0.02718   -0.236076           
         N         N         0.22335   0.62407   0.01580   -0.237755           
         N         N         0.36940   0.59758   0.97047   -0.231151           
         N         N         0.59537   0.22251   -0.00228  -0.229884           
         N         N         0.77502   0.37396   0.01233   -0.241769           
         N         N         0.62511   0.39854   0.04832   -0.233890           
         H         H         0.34206   0.76047   0.99299   0.100693  
         H         H         0.23901   0.58109   0.00097   0.101955  
         H         H         0.41608   0.65706   0.99360   0.101712  
         H         H         0.65766   0.24078   0.00953   0.101624  
         H         H         0.75836   0.41829   0.00432   0.097391  
         H         H         0.57964   0.33907   0.01495   0.106216  
         H         H         0.42375   0.75962   0.05071   0.277623  
         H         H         0.23729   0.65533   0.01583   0.272722  
         H         H         0.33782   0.58068   0.96807   0.273795  
         H         H         0.57700   0.23584   0.99199   0.276146  
         H         H         0.76181   0.34228   0.02401   0.275800  
         H         H         0.65735   0.41612   0.06327   0.273723  
         H         H         0.65746   0.46449   0.18217   0.129873  
         H         H         0.51765   0.17219   0.98402   0.127241  
         H         H         0.83986   0.35104   0.15826   0.126597  
         H         H         0.34533   0.51991   0.01441   0.125789  
         H         H         0.48807   0.82004   0.21342   0.125082  
         H         H         0.17728   0.65013   0.04474   0.133170  
         H         H         0.61513   0.49825   0.16311   0.118516  
         H         H         0.48544   0.09822   0.99252   0.123755  
         H         H         0.91225   0.39272   0.14238   0.118918  
         H         H         0.38649   0.48480   0.03590   0.118312  
         H         H         0.51944   0.89411   0.20285   0.117926  
         H         H         0.10239   0.61101   0.03556   0.119519  
         H         H         0.50366   0.40992   0.39392   0.118229  
         H         H         0.59602   0.10488   0.50973   0.122661  
         H         H         0.87619   0.49157   0.31795   0.118993  
         H         H         0.49490   0.60777   0.44316   0.116066  
         H         H         0.38057   0.89557   0.26869   0.116868  
         H         H         0.10762   0.50229   0.48780   0.120075  
         H         H         0.54392   0.37521   0.40782   0.123408  
         H         H         0.63268   0.17795   0.51521   0.122132  
         H         H         0.80287   0.45015   0.32496   0.126182  
         H         H         0.45308   0.64131   0.42458   0.124977  
         H         H         0.35463   0.82213   0.28608   0.122489  
         H         H         0.18195   0.54192   0.49918   0.125080  
         C         C         0.30801   0.68248   0.49957   0.359915  
         C         C         0.31893   0.62476   0.48341   0.356716  
         C         C         0.37915   0.69527   0.50040   0.354230  
         C         C         0.69547   0.31667   0.52153   0.355693  
         C         C         0.68678   0.37630   0.53187   0.358099  
         C         C         0.62431   0.30706   0.50953   0.354503  
         C         C         0.35101   0.70966   0.49858   -0.242449           
         C         C         0.29295   0.64009   0.49450   -0.249863           
         C         C         0.36189   0.65289   0.48639   -0.251417           
         C         C         0.65135   0.29101   0.51281   -0.239274           
         C         C         0.71142   0.35953   0.52014   -0.250546           
         C         C         0.64325   0.34958   0.52592   -0.249259           
         C         C         0.36437   0.75022   0.49825   0.124725  
         C         C         0.25294   0.61231   0.50122   0.127873  
         C         C         0.38855   0.64008   0.47967   0.115968  
         C         C         0.63615   0.25040   0.50842   0.118204  
         C         C         0.75146   0.38603   0.50961   0.125399  
         C         C         0.61794   0.36360   0.53596   0.115445  
         C         C         0.60834   0.41917   0.55586   0.212409  
         C         C         0.57765   0.18265   0.49973   0.207959  
         C         C         0.81830   0.39747   0.49839   0.214466  
         C         C         0.40084   0.58511   0.47026   0.215181  
         C         C         0.41818   0.81940   0.49481   0.212678  
         C         C         0.18564   0.59783   0.51976   0.216280  
         C         C         0.63132   0.45572   0.62914   -0.181536           
         C         C         0.53502   0.16091   0.49252   -0.184206           
         C         C         0.84987   0.38055   0.58594   -0.177541           
         C         C         0.38502   0.54275   0.49738   -0.180877           
         C         C         0.46275   0.84190   0.60058   -0.179338           
         C         C         0.16347   0.61563   0.53177   -0.186404           
         C         C         0.60857   0.47527   0.61972   -0.115381           
         C         C         0.51453   0.11970   0.49051   -0.110574           
         C         C         0.89060   0.40335   0.58047   -0.113076           
         C         C         0.40867   0.52401   0.50856   -0.108389           
         C         C         0.47738   0.88295   0.59170   -0.111543           
         C         C         0.12175   0.59321   0.52673   -0.108741           
         C         C         0.56206   0.45896   0.53651   0.108981  
         C         C         0.53611   0.09870   0.49595   0.102066  
         C         C         0.90102   0.44404   0.48559   0.113248  
         C         C         0.44903   0.54710   0.49096   0.103770  
         C         C         0.44791   0.90306   0.47403   0.112106  
         C         C         0.10046   0.55197   0.50786   0.104088  
         C         C         0.52991   0.41665   0.94572   -0.108931           
         C         C         0.58470   0.12091   0.01404   -0.106521           
         C         C         0.86399   0.46152   0.88356   -0.109706           
         C         C         0.45606   0.58253   0.96653   -0.105576           
         C         C         0.41221   0.88015   0.88809   -0.106938           
         C         C         0.11942   0.53669   0.00113   -0.113099           
         C         C         0.55353   0.39770   0.95780   -0.186711           
         C         C         0.60298   0.16219   0.01233   -0.194404           
         C         C         0.82363   0.43831   0.89356   -0.185011           
         C         C         0.43312   0.60208   0.95510   -0.185028           
         C         C         0.39479   0.83876   0.89486   -0.190065           
         C         C         0.16145   0.55846   0.00872   -0.189514           
         C         C         0.53885   0.47855   0.52751   -0.079371           
         C         C         0.51521   0.05701   0.48881   -0.081805           
         C         C         0.94277   0.46753   0.48329   -0.081213           
         C         C         0.47337   0.52859   0.50148   -0.071531           
         C         C         0.46348   0.94478   0.46879   -0.083715           
         C         C         0.05773   0.52921   0.49940   -0.081992           
         C         C         0.51825   0.49519   0.51995   -0.035058           
         C         C         0.49767   0.02086   0.48053   -0.036633           
         C         C         0.97969   0.48777   0.48664   -0.037901           
         C         C         0.49509   0.51292   0.51084   -0.043485           
         C         C         0.47937   0.98102   0.47342   -0.033958           
         C         C         0.02041   0.50966   0.49209   -0.034580           
         O         O         0.28483   0.69563   0.50635   -0.476921           
         O         O         0.30441   0.58769   0.47494   -0.477546           
         O         O         0.41767   0.71885   0.51282   -0.480322           
         O         O         0.71875   0.30189   0.52705   -0.468926           
         O         O         0.70316   0.41336   0.54693   -0.488268           
         O         O         0.58553   0.28472   0.49661   -0.473378           
         N         N         0.40416   0.77776   0.51031   -0.236916           
         N         N         0.22661   0.62268   0.51535   -0.239452           
         N         N         0.37611   0.60191   0.46696   -0.232297           
         N         N         0.59620   0.22406   0.50050   -0.229972           
         N         N         0.77806   0.37333   0.51237   -0.236847           
         N         N         0.63237   0.40136   0.56047   -0.231697           
         H         H         0.34171   0.75995   0.49126   0.102184  
         H         H         0.24300   0.58108   0.49455   0.101775  
         H         H         0.42065   0.66211   0.48550   0.102105  
         H         H         0.65786   0.23998   0.51224   0.101407  
         H         H         0.76173   0.41817   0.50096   0.098262  
         H         H         0.58532   0.34244   0.52692   0.105327  
         H         H         0.42367   0.76438   0.52705   0.275422  
         H         H         0.24048   0.65368   0.52020   0.271976  
         H         H         0.34494   0.58397   0.46734   0.273360  
         H         H         0.57886   0.23875   0.49365   0.273347  
         H         H         0.76497   0.34164   0.52710   0.275655  
         H         H         0.66454   0.41807   0.57274   0.272637  
         H         H         0.66710   0.46815   0.69607   0.129583  
         H         H         0.51842   0.17679   0.49069   0.128188  
         H         H         0.84236   0.34964   0.66335   0.125469  
         H         H         0.35444   0.52487   0.51559   0.130710  
         H         H         0.48562   0.82676   0.69242   0.125964  
         H         H         0.17961   0.64731   0.54578   0.130808  
         H         H         0.62625   0.50321   0.67923   0.117080  
         H         H         0.48165   0.10309   0.48596   0.120992  
         H         H         0.91524   0.39044   0.65112   0.118293  
         H         H         0.39649   0.49130   0.53292   0.118465  
         H         H         0.51171   0.90027   0.67681   0.122124  
         H         H         0.10504   0.60697   0.53885   0.120120  
         H         H         0.49414   0.40370   0.87656   0.117136  
         H         H         0.60331   0.10644   0.02122   0.119553  
         H         H         0.87063   0.49223   0.80291   0.118455  
         H         H         0.48674   0.59993   0.94893   0.119515  
         H         H         0.39127   0.89724   0.79336   0.119880  
         H         H         0.10285   0.50498   0.98656   0.123068  
         H         H         0.53610   0.37020   0.89519   0.125358  
         H         H         0.63604   0.17967   0.01994   0.123183  
         H         H         0.79831   0.45057   0.82003   0.125532  
         H         H         0.44608   0.63490   0.92842   0.122510  
         H         H         0.36025   0.82357   0.80322   0.123804  
         H         H         0.17733   0.54352   -0.00136  0.127339 

