
##########################################################################
#               Crystallographic Information Format file
#               Produced by PyCifRW module
#
#  This is a CIF file.  CIF has been adopted by the International
#  Union of Crystallography as the standard for data archiving and
#  transmission.
#
#  For information on this file format, follow the CIF links at
#  http://www.iucr.org
##########################################################################

data_image0

_cell_length_a                          34.1572
_cell_length_b                          34.5127
_cell_length_c                          7.96891
_cell_angle_alpha                       106.554
_cell_angle_beta                        104.581
_cell_angle_gamma                       119.756
_symmetry_space_group_name_H-M          'P 1'
_space_group_name_Hall                  'P 1'
loop_
  _atom_site_type_symbol
  _atom_site_label
  _atom_site_fract_x
  _atom_site_fract_y
  _atom_site_fract_z
  _atom_site_charge
         C         C         0.30331   0.68479   -0.00387  0.355987  
         C         C         0.31663   0.61752   0.97385   0.356672  
         C         C         0.38340   0.69922   0.98706   0.357876  
         C         C         0.69719   0.31281   0.99525   0.353148  
         C         C         0.68817   0.38296   0.02174   0.353731  
         C         C         0.61800   0.30143   -0.00143  0.357346  
         C         C         0.35041   0.71441   0.98471   -0.252467           
         C         C         0.28665   0.63603   0.98659   -0.255156           
         C         C         0.36568   0.65051   0.98205   -0.237537           
         C         C         0.64982   0.28486   0.00556   -0.250557           
         C         C         0.71669   0.36266   0.01200   -0.253388           
         C         C         0.63813   0.35082   0.00695   -0.236226           
         C         C         0.36326   0.75868   0.97612   0.124481  
         C         C         0.24190   0.60539   0.99368   0.110483  
         C         C         0.39789   0.63685   0.98887   0.120758  
         C         C         0.63513   0.24050   0.01595   0.122556  
         C         C         0.76212   0.39189   0.00737   0.118428  
         C         C         0.60695   0.36571   0.99521   0.121564  
         C         C         0.59466   0.43003   0.99482   0.207955  
         C         C         0.57156   0.16409   0.01642   0.214758  
         C         C         0.83495   0.40196   0.97088   0.216480  
         C         C         0.41544   0.57659   0.00007   0.209361  
         C         C         0.42354   0.83495   0.96339   0.215655  
         C         C         0.16543   0.59055   0.01282   0.213236  
         C         C         0.60779   0.47258   0.49842   -0.183146           
         C         C         0.51949   0.12699   0.44688   -0.185339           
         C         C         0.85329   0.38363   0.40433   -0.181066           
         C         C         0.37762   0.51562   0.41015   -0.183229           
         C         C         0.47182   0.85835   0.44478   -0.184199           
         C         C         0.13552   0.61616   0.49368   -0.179559           
         C         C         0.58143   0.49292   0.49459   -0.111969           
         C         C         0.50011   0.08112   0.44813   -0.114958           
         C         C         0.89985   0.41175   0.40527   -0.113750           
         C         C         0.40379   0.49527   0.41237   -0.115329           
         C         C         0.49374   0.90603   0.45632   -0.114672           
         C         C         0.08781   0.59058   0.48589   -0.121712           
         C         C         0.54566   0.47621   0.00251   0.114506  
         C         C         0.52822   0.06862   0.00480   0.120733  
         C         C         0.92964   0.45430   0.96967   0.119532  
         C         C         0.47406   0.54064   0.02328   0.120622  
         C         C         0.46684   0.93106   0.98029   0.115588  
         C         C         0.06854   0.53527   -0.00386  0.116209  
         C         C         0.52238   0.42769   0.99108   -0.109363           
         C         C         0.58173   0.10511   0.08817   -0.109717           
         C         C         0.91203   0.48073   0.04777   -0.108462           
         C         C         0.49757   0.59311   0.09298   -0.112951           
         C         C         0.42156   0.90576   -0.00397  -0.111280           
         C         C         0.09856   0.51818   0.01557   -0.109993           
         C         C         0.54643   0.40499   0.98766   -0.190301           
         C         C         0.60321   0.15214   0.09435   -0.184794           
         C         C         0.86571   0.45519   0.04964   -0.186813           
         C         C         0.46886   0.61084   0.08300   -0.189950           
         C         C         0.39992   0.85839   0.98652   -0.189075           
         C         C         0.14618   0.54520   0.02355   -0.195113           
         C         C         0.52207   0.50009   0.01438   -0.108923           
         C         C         0.50660   0.02058   -0.00356  -0.106534           
         C         C         0.97777   0.48162   0.97486   -0.104718           
         C         C         0.50168   0.52094   0.02510   -0.106856           
         C         C         0.48839   0.97910   0.98896   -0.102932           
         C         C         0.01982   0.50684   0.98543   -0.106913           
         O         O         0.27761   0.70118   0.01319   -0.473850           
         O         O         0.30073   0.57421   0.96098   -0.474673           
         O         O         0.42631   0.72757   0.99348   -0.480439           
         O         O         0.72052   0.29381   0.97104   -0.485959           
         O         O         0.70588   0.42661   0.03487   -0.471947           
         O         O         0.57419   0.27407   0.98675   -0.473600           
         N         N         0.40560   0.78897   0.96589   -0.238510           
         N         N         0.21181   0.61865   0.01124   -0.229247           
         N         N         0.38492   0.59256   0.98121   -0.234370           
         N         N         0.59051   0.20982   0.01086   -0.235025           
         N         N         0.78878   0.37514   0.97528   -0.231358           
         N         N         0.62179   0.41028   0.00102   -0.236519           
         H         H         0.33734   0.76837   0.97501   0.102151  
         H         H         0.23161   0.56936   0.98548   0.103506  
         H         H         0.43480   0.66314   -0.00053  0.100414  
         H         H         0.66077   0.23032   0.02732   0.098482  
         H         H         0.77542   0.42940   0.02532   0.102303  
         H         H         0.56917   0.33984   0.97911   0.102106  
         H         H         0.42694   0.77514   0.96975   0.271908  
         H         H         0.22636   0.65397   0.01620   0.275674  
         H         H         0.34766   0.57064   0.96436   0.274255  
         H         H         0.56876   0.22308   0.99270   0.274894  
         H         H         0.77075   0.33805   0.95497   0.273564  
         H         H         0.65912   0.43076   0.01652   0.273701  
         H         H         0.64478   0.49291   0.50130   0.127521  
         H         H         0.49405   0.13522   0.38637   0.126403  
         H         H         0.83090   0.34238   0.33956   0.127797  
         H         H         0.33624   0.49094   0.34569   0.124695  
         H         H         0.48907   0.83932   0.41997   0.129326  
         H         H         0.15108   0.65043   0.47893   0.124429  
         H         H         0.59754   0.52913   0.49440   0.116775  
         H         H         0.45929   0.05324   0.39115   0.115433  
         H         H         0.91423   0.39285   0.34099   0.117775  
         H         H         0.38324   0.45439   0.35170   0.113399  
         H         H         0.52798   0.92446   0.43911   0.116154  
         H         H         0.06589   0.60495   0.46700   0.116316  
         H         H         0.48558   0.40851   0.98981   0.116169  
         H         H         0.60598   0.09581   0.15013   0.115759  
         H         H         0.93617   0.52201   0.11136   0.114888  
         H         H         0.53883   0.61996   0.15725   0.113529  
         H         H         0.40404   0.92444   0.01930   0.114125  
         H         H         0.08369   0.48335   0.02595   0.114961  
         H         H         0.52810   0.36823   0.98362   0.120315  
         H         H         0.64457   0.18019   0.16367   0.123896  
         H         H         0.85397   0.47655   0.11837   0.120919  
         H         H         0.48781   0.65151   0.14205   0.120648  
         H         H         0.36559   0.84038   0.00314   0.125197  
         H         H         0.16844   0.53119   0.03965   0.125853  
         C         C         0.30233   0.68615   0.49173   0.355923  
         C         C         0.31106   0.61573   0.46460   0.355276  
         C         C         0.38061   0.69621   0.47872   0.357742  
         C         C         0.69536   0.31352   0.49772   0.355218  
         C         C         0.68313   0.38150   0.51723   0.357262  
         C         C         0.61450   0.29924   0.49668   0.358307  
         C         C         0.35011   0.71416   0.48232   -0.251106           
         C         C         0.28345   0.63689   0.48156   -0.255775           
         C         C         0.36083   0.64754   0.47628   -0.241049           
         C         C         0.64743   0.28396   0.50346   -0.252689           
         C         C         0.71281   0.36244   0.50796   -0.251373           
         C         C         0.63350   0.34858   0.50531   -0.238282           
         C         C         0.36594   0.75952   0.47960   0.125470  
         C         C         0.23860   0.60813   0.49124   0.114374  
         C         C         0.39157   0.63215   0.48475   0.120528  
         C         C         0.63386   0.23976   0.51359   0.123760  
         C         C         0.75798   0.39253   0.50283   0.117882  
         C         C         0.60168   0.36267   0.49646   0.117255  
         C         C         0.58684   0.42552   0.49679   0.205031  
         C         C         0.57221   0.16295   0.51816   0.221518  
         C         C         0.83431   0.40796   0.48424   0.215712  
         C         C         0.40415   0.56845   0.48645   0.212510  
         C         C         0.42700   0.83408   0.46329   0.210002  
         C         C         0.16351   0.59710   0.51210   0.218999  
         C         C         0.61740   0.47745   -0.00111  -0.186307           
         C         C         0.51840   0.12877   0.93879   -0.180657           
         C         C         0.85140   0.37493   0.88878   -0.184322           
         C         C         0.39173   0.52446   0.93520   -0.178612           
         C         C         0.46816   0.85929   0.94354   -0.185354           
         C         C         0.13640   0.60852   -0.00204  -0.178023           
         C         C         0.59336   0.50017   0.00288   -0.114928           
         C         C         0.49705   0.08169   0.93135   -0.119335           
         C         C         0.89822   0.40069   0.88961   -0.117865           
         C         C         0.42053   0.50695   0.94734   -0.109789           
         C         C         0.48938   0.90645   0.95128   -0.112413           
         C         C         0.08874   0.58136   0.98907   -0.115136           
         C         C         0.53301   0.46675   0.48754   0.113208  
         C         C         0.53274   0.06958   0.52156   0.119010  
         C         C         0.92917   0.46537   0.48637   0.121039  
         C         C         0.45744   0.52709   0.49151   0.120335  
         C         C         0.47160   0.93104   0.48702   0.112057  
         C         C         0.06657   0.54514   0.49845   0.116612  
         C         C         0.51206   0.41917   0.48316   -0.109742           
         C         C         0.58583   0.10673   0.59882   -0.108734           
         C         C         0.90949   0.48927   0.56499   -0.114230           
         C         C         0.48380   0.58029   0.57389   -0.107570           
         C         C         0.42593   0.90561   0.50041   -0.108431           
         C         C         0.09553   0.52690   0.52092   -0.105289           
         C         C         0.53850   0.39896   0.48826   -0.190548           
         C         C         0.60541   0.15282   0.59835   -0.188795           
         C         C         0.86304   0.46117   0.56455   -0.187299           
         C         C         0.45771   0.60077   0.57285   -0.188395           
         C         C         0.40377   0.85788   0.48744   -0.187384           
         C         C         0.14308   0.55230   0.52745   -0.192989           
         C         C         0.50644   0.48762   0.48688   -0.108797           
         C         C         0.51246   0.02195   0.51479   -0.107822           
         C         C         0.97679   0.49403   0.48906   -0.106558           
         C         C         0.48388   0.50619   0.48942   -0.105817           
         C         C         0.49379   0.97968   0.50167   -0.102978           
         C         C         0.01830   0.51842   0.49255   -0.105218           
         O         O         0.27788   0.70414   0.50669   -0.475701           
         O         O         0.29231   0.57122   0.44389   -0.475183           
         O         O         0.42288   0.72173   0.47671   -0.480678           
         O         O         0.72075   0.29661   0.48234   -0.487056           
         O         O         0.69981   0.42489   0.52947   -0.472019           
         O         O         0.57092   0.27102   0.48540   -0.473460           
         N         N         0.40779   0.78765   0.46300   -0.234732           
         N         N         0.21007   0.62347   0.50959   -0.231543           
         N         N         0.37600   0.58700   0.47304   -0.234590           
         N         N         0.58929   0.20770   0.50613   -0.238948           
         N         N         0.78758   0.37870   0.48328   -0.234064           
         N         N         0.61556   0.40742   0.50619   -0.233537           
         H         H         0.34273   0.77215   0.48967   0.099163  
         H         H         0.22684   0.57181   0.48407   0.100629  
         H         H         0.42925   0.65761   0.49945   0.101930  
         H         H         0.66063   0.23102   0.52767   0.098033  
         H         H         0.76896   0.42859   0.50954   0.103360  
         H         H         0.56399   0.33600   0.47905   0.102033  
         H         H         0.42685   0.77149   0.45683   0.273808  
         H         H         0.22575   0.65860   0.51164   0.273079  
         H         H         0.33804   0.56587   0.45014   0.273665  
         H         H         0.56669   0.21996   0.48705   0.275091  
         H         H         0.77207   0.34258   0.47047   0.274392  
         H         H         0.65263   0.42868   0.52056   0.272818  
         H         H         0.65399   0.49599   -0.00209  0.128661  
         H         H         0.49430   0.13847   0.87894   0.125733  
         H         H         0.82678   0.33355   0.82316   0.126997  
         H         H         0.35044   0.49785   0.87262   0.125382  
         H         H         0.48557   0.84036   0.92024   0.129783  
         H         H         0.15107   0.64322   0.98654   0.125639  
         H         H         0.61089   0.53670   0.00496   0.117639  
         H         H         0.45581   0.05417   0.86703   0.114407  
         H         H         0.91115   0.37990   0.82687   0.114184  
         H         H         0.40218   0.46659   0.89510   0.113950  
         H         H         0.52327   0.92448   0.93180   0.115823  
         H         H         0.06601   0.59492   0.97322   0.117340  
         H         H         0.47510   0.39876   0.48009   0.115607  
         H         H         0.61139   0.09895   0.66256   0.115091  
         H         H         0.93178   0.53053   0.62956   0.112623  
         H         H         0.52523   0.60535   0.64151   0.115369  
         H         H         0.40854   0.92440   0.52539   0.114187  
         H         H         0.08018   0.49269   0.53610   0.114955  
         H         H         0.52200   0.36292   0.48971   0.119596  
         H         H         0.64650   0.18149   0.66347   0.124681  
         H         H         0.84973   0.48065   0.63322   0.121222  
         H         H         0.47867   0.64189   0.64219   0.120245  
         H         H         0.36924   0.83989   0.50266   0.125118  
         H         H         0.16458   0.53756   0.54682   0.125404 

