
##########################################################################
#               Crystallographic Information Format file
#               Produced by PyCifRW module
#
#  This is a CIF file.  CIF has been adopted by the International
#  Union of Crystallography as the standard for data archiving and
#  transmission.
#
#  For information on this file format, follow the CIF links at
#  http://www.iucr.org
##########################################################################

data_image0

_cell_length_a                          33.9025
_cell_length_b                          33.6528
_cell_length_c                          8.09115
_cell_angle_alpha                       90.3314
_cell_angle_beta                        90.0135
_cell_angle_gamma                       89.9822
_symmetry_space_group_name_H-M          'P 1'
_space_group_name_Hall                  'P 1'
loop_
  _atom_site_type_symbol
  _atom_site_label
  _atom_site_fract_x
  _atom_site_fract_y
  _atom_site_fract_z
  _atom_site_charge
         C         C         0.46448   0.95766   0.11700   0.035371  
         C         C         0.53897   0.04210   0.12805   0.033021  
         C         C         0.03487   0.45757   0.39017   0.034278  
         C         C         0.96132   0.54253   0.39818   0.032910  
         C         C         0.03468   0.54268   0.40855   0.034510  
         C         C         0.96154   0.45730   0.38938   0.032778  
         C         C         0.46561   0.04281   0.12052   0.033351  
         C         C         0.53782   0.95681   0.12627   0.033189  
         C         C         0.42984   0.02099   0.14228   -0.133312           
         C         C         0.57332   0.97865   0.15499   -0.136242           
         C         C         0.07022   0.52073   0.38267   -0.135059           
         C         C         0.92618   0.47963   0.36555   -0.135594           
         C         C         0.07027   0.48016   0.37223   -0.134067           
         C         C         0.92616   0.52028   0.36728   -0.136556           
         C         C         0.42931   0.98039   0.14007   -0.135670           
         C         C         0.57386   0.01930   0.15631   -0.135321           
         C         C         0.46649   0.08477   0.10007   0.026665  
         C         C         0.53704   0.91478   0.10617   0.024197  
         C         C         0.03424   0.58464   0.43323   0.023163  
         C         C         0.96200   0.41512   0.40203   0.023239  
         C         C         0.03468   0.41536   0.40094   0.025487  
         C         C         0.96148   0.58449   0.42138   0.021692  
         C         C         0.46428   0.91565   0.09406   0.021639  
         C         C         0.53934   0.08417   0.10758   0.021380  
         C         C         0.43031   0.10871   0.07970   0.068327  
         C         C         0.57282   0.88998   0.09122   0.071296  
         C         C         0.07027   0.60905   0.45111   0.070572  
         C         C         0.92619   0.39050   0.41725   0.071146  
         C         C         0.07095   0.39139   0.41485   0.069160  
         C         C         0.92513   0.60855   0.43022   0.070079  
         C         C         0.42811   0.89182   0.06946   0.069308  
         C         C         0.57570   0.10824   0.09228   0.071256  
         C         C         0.42730   0.14652   0.15473   -0.130643           
         C         C         0.57441   0.85232   0.16673   -0.131455           
         C         C         0.07172   0.64713   0.37892   -0.131198           
         C         C         0.92440   0.35308   0.33815   -0.129001           
         C         C         0.07394   0.35410   0.33507   -0.131978           
         C         C         0.92374   0.64611   0.35409   -0.129216           
         C         C         0.42603   0.85305   0.13479   -0.127125           
         C         C         0.57713   0.14708   0.15931   -0.126929           
         C         C         0.39414   0.17020   0.13345   -0.094424           
         C         C         0.60654   0.82717   0.14481   -0.096576           
         C         C         0.10457   0.67148   0.39500   -0.094831           
         C         C         0.89206   0.32820   0.35641   -0.097558           
         C         C         0.10715   0.33032   0.35365   -0.094036           
         C         C         0.89047   0.67005   0.36437   -0.096129           
         C         C         0.39317   0.82919   0.11150   -0.097056           
         C         C         0.60974   0.17151   0.13766   -0.097717           
         C         C         0.36226   0.15669   0.03667   0.029274  
         C         C         0.63872   0.83903   0.04674   0.028305  
         C         C         0.13801   0.65848   0.48276   0.030571  
         C         C         0.85978   0.33996   0.45451   0.027876  
         C         C         0.13898   0.34331   0.45191   0.030134  
         C         C         0.85695   0.65734   0.45211   0.030610  
         C         C         0.36034   0.84334   0.02308   0.028498  
         C         C         0.64288   0.15805   0.04861   0.030549  
         C         C         0.36160   0.12175   0.46992   -0.125335           
         C         C         0.63783   0.88461   0.46930   -0.126716           
         C         C         0.13813   0.62135   0.06039   -0.125277           
         C         C         0.86339   0.38285   0.02555   -0.127388           
         C         C         0.14222   0.38121   0.02337   -0.128893           
         C         C         0.86161   0.61688   0.03162   -0.125821           
         C         C         0.36329   0.87885   0.44531   -0.124646           
         C         C         0.63693   0.11682   0.47226   -0.124917           
         C         C         0.39458   0.09770   0.49096   -0.133327           
         C         C         0.60449   0.90799   0.49480   -0.133813           
         C         C         0.10496   0.59740   0.04273   -0.130052           
         C         C         0.89726   0.40583   0.01015   -0.129006           
         C         C         0.10902   0.40517   0.00677   -0.131384           
         C         C         0.89554   0.59401   0.01501   -0.130841           
         C         C         0.39585   0.90338   0.47010   -0.132963           
         C         C         0.60329   0.09401   0.49803   -0.133656           
         C         C         0.32789   0.18219   0.01590   0.126874  
         C         C         0.67222   0.81249   0.02199   0.128532  
         C         C         0.17250   0.68425   0.49593   0.126173  
         C         C         0.82570   0.31390   0.47095   0.128483  
         C         C         0.17347   0.31802   0.47183   0.126484  
         C         C         0.82263   0.68330   0.46391   0.124915  
         C         C         0.32607   0.81760   0.00565   0.124973  
         C         C         0.67656   0.18443   0.02501   0.125333  
         C         C         0.78750   0.26056   0.44310   0.178497  
         C         C         0.21103   0.73711   0.46144   0.175685  
         C         C         0.70983   0.75852   0.03883   0.179118  
         C         C         0.28998   0.23583   0.04027   0.180470  
         C         C         0.71376   0.23877   0.04359   0.179204  
         C         C         0.28824   0.76437   0.04004   0.175920  
         C         C         0.78507   0.73694   0.43235   0.177905  
         C         C         0.21216   0.26504   0.44889   0.178133  
         C         C         0.77642   0.22187   0.39667   -0.200792           
         C         C         0.22235   0.77531   0.41091   -0.199989           
         C         C         0.72080   0.71973   0.08214   -0.201769           
         C         C         0.27926   0.27454   0.08745   -0.199623           
         C         C         0.72450   0.27760   0.08940   -0.202067           
         C         C         0.27741   0.72632   0.09363   -0.198446           
         C         C         0.77464   0.77558   0.38399   -0.200561           
         C         C         0.22368   0.22659   0.40208   -0.198379           
         N         N         0.32578   0.21856   0.07485   -0.334951           
         N         N         0.67428   0.77603   0.07826   -0.330864           
         N         N         0.17449   0.72026   0.43459   -0.332207           
         N         N         0.82361   0.27765   0.41057   -0.331931           
         N         N         0.17623   0.28180   0.41195   -0.332048           
         N         N         0.82096   0.71919   0.40123   -0.329715           
         N         N         0.32426   0.78181   0.06919   -0.331865           
         N         N         0.67843   0.22095   0.08283   -0.331873           
         C         C         0.26053   0.78758   0.44939   -0.020862           
         C         C         0.73914   0.20899   0.44492   -0.019703           
         C         C         0.24183   0.28745   0.04225   -0.020492           
         C         C         0.75826   0.70702   0.03524   -0.021430           
         C         C         0.23966   0.71335   0.05347   -0.021560           
         C         C         0.76167   0.29074   0.04097   -0.017695           
         C         C         0.26099   0.21414   0.45087   -0.020154           
         C         C         0.73754   0.78935   0.43124   -0.015538           
         S         S         0.78083   0.66156   0.07292   0.049319  
         S         S         0.22004   0.33330   0.08048   0.050993  
         S         S         0.71717   0.16287   0.41236   0.050167  
         S         S         0.28316   0.83260   0.40442   0.052183  
         S         S         0.71634   0.83579   0.39841   0.048674  
         S         S         0.28353   0.16873   0.41232   0.051713  
         S         S         0.78414   0.33626   0.08062   0.048974  
         S         S         0.21748   0.66838   0.10171   0.052520  
         H         H         0.79667   0.20348   0.32580   0.143202  
         H         H         0.20170   0.79396   0.34401   0.144358  
         H         H         0.70044   0.70124   0.15106   0.143764  
         H         H         0.29985   0.29275   0.15760   0.144122  
         H         H         0.70425   0.29568   0.16174   0.143698  
         H         H         0.29807   0.70856   0.16443   0.143328  
         H         H         0.79531   0.79322   0.31279   0.143176  
         H         H         0.20379   0.20810   0.32987   0.142788  
         H         H         0.40250   0.03724   0.16117   0.107498  
         H         H         0.60051   0.96234   0.17563   0.106363  
         H         H         0.09778   0.53690   0.37060   0.104862  
         H         H         0.89880   0.46372   0.34321   0.107344  
         H         H         0.09786   0.46458   0.35072   0.107327  
         H         H         0.89884   0.53623   0.34485   0.106317  
         H         H         0.40151   0.96490   0.15699   0.105927  
         H         H         0.60138   0.03486   0.18013   0.106803  
         H         H         0.45106   0.15686   0.23444   0.109330  
         H         H         0.55028   0.84322   0.24672   0.108916  
         H         H         0.04690   0.65704   0.30450   0.108948  
         H         H         0.94845   0.34401   0.25740   0.107328  
         H         H         0.05019   0.34416   0.25439   0.108666  
         H         H         0.94904   0.65596   0.28250   0.109040  
         H         H         0.45039   0.84195   0.20880   0.109857  
         H         H         0.55255   0.15782   0.23359   0.109756  
         H         H         0.39173   0.19910   0.19354   0.120959  
         H         H         0.60776   0.79849   0.20581   0.123676  
         H         H         0.10541   0.70052   0.33687   0.122208  
         H         H         0.89062   0.29983   0.29196   0.122962  
         H         H         0.10940   0.30170   0.29121   0.121380  
         H         H         0.88944   0.69863   0.30263   0.122479  
         H         H         0.39151   0.79965   0.16480   0.122202  
         H         H         0.61058   0.20125   0.19076   0.122991  
         H         H         0.33737   0.11115   0.39305   0.107482  
         H         H         0.66215   0.89625   0.39621   0.108020  
         H         H         0.16227   0.61158   0.13908   0.106761  
         H         H         0.83854   0.39430   0.09656   0.107971  
         H         H         0.16739   0.39227   0.09340   0.108821  
         H         H         0.83757   0.60623   0.10874   0.107069  
         H         H         0.34031   0.88816   0.35991   0.106183  
         H         H         0.65970   0.10586   0.38868   0.106600  
         H         H         0.39598   0.06913   0.42797   0.105889  
         H         H         0.60277   0.93726   0.43915   0.104421  
         H         H         0.10331   0.56944   0.10901   0.104945  
         H         H         0.89887   0.43438   0.07338   0.104902  
         H         H         0.10846   0.43406   0.06745   0.106820  
         H         H         0.89788   0.56604   0.08083   0.105168  
         H         H         0.39792   0.93134   0.40394   0.103877  
         H         H         0.60001   0.06568   0.43428   0.104095  
         C         C         0.50310   0.10391   0.09239   -0.182088           
         C         C         0.50058   0.89580   0.08932   -0.180985           
         C         C         0.99768   0.60394   0.44064   -0.184000           
         C         C         0.99843   0.39567   0.40795   -0.183045           
         C         C         0.50143   0.97851   0.12340   0.006182  
         C         C         0.50203   0.02119   0.12470   0.005274  
         C         C         0.99815   0.47871   0.39269   0.005730  
         C         C         0.99804   0.52135   0.40004   0.006538  
         H         H         0.50338   0.13558   0.06633   0.106522  
         H         H         0.50066   0.86404   0.06447   0.106156  
         H         H         0.99728   0.63561   0.46807   0.105767  
         H         H         0.99855   0.36374   0.42755   0.107544  
         C         C         0.46196   0.95842   0.62269   0.034264  
         C         C         0.53521   0.04334   0.64149   0.033217  
         C         C         0.03934   0.45804   0.88496   0.034530  
         C         C         0.96515   0.54244   0.88342   0.033727  
         C         C         0.03831   0.54320   0.89744   0.033248  
         C         C         0.96601   0.45752   0.88052   0.035966  
         C         C         0.46199   0.04382   0.62887   0.035736  
         C         C         0.53526   0.95865   0.63507   0.033750  
         C         C         0.42644   0.02139   0.64680   -0.138676           
         C         C         0.57027   0.98062   0.67123   -0.135490           
         C         C         0.07408   0.52153   0.87238   -0.136061           
         C         C         0.93072   0.47941   0.84913   -0.134840           
         C         C         0.07445   0.48094   0.86343   -0.136340           
         C         C         0.93032   0.52002   0.84915   -0.134823           
         C         C         0.42641   0.98071   0.64387   -0.135375           
         C         C         0.57027   0.02120   0.67400   -0.133919           
         C         C         0.46272   0.08588   0.60860   0.021230  
         C         C         0.53542   0.91697   0.60589   0.023138  
         C         C         0.03722   0.58505   0.92249   0.023445  
         C         C         0.96649   0.41564   0.90312   0.025120  
         C         C         0.03931   0.41596   0.90327   0.022151  
         C         C         0.96470   0.58429   0.90896   0.025044  
         C         C         0.46270   0.91649   0.59797   0.024730  
         C         C         0.53542   0.08511   0.61797   0.026827  
         C         C         0.42696   0.11042   0.58654   0.069933  
         C         C         0.57191   0.89362   0.58433   0.071418  
         C         C         0.07289   0.60949   0.94467   0.068775  
         C         C         0.93016   0.39193   0.92055   0.068094  
         C         C         0.07551   0.39186   0.91960   0.070185  
         C         C         0.92787   0.60749   0.92191   0.068659  
         C         C         0.42708   0.89181   0.57366   0.069264  
         C         C         0.57224   0.10795   0.59818   0.068813  
         C         C         0.42505   0.14886   0.65706   -0.127899           
         C         C         0.57429   0.85475   0.64775   -0.128832           
         C         C         0.07488   0.64711   0.86939   -0.130954           
         C         C         0.92781   0.35360   0.84983   -0.131083           
         C         C         0.07670   0.35300   0.85281   -0.129528           
         C         C         0.92482   0.64506   0.84666   -0.130664           
         C         C         0.42457   0.85418   0.64902   -0.131304           
         C         C         0.57638   0.14563   0.67286   -0.131343           
         C         C         0.39243   0.17323   0.63472   -0.098379           
         C         C         0.60737   0.83124   0.62221   -0.097198           
         C         C         0.10758   0.67139   0.88896   -0.095802           
         C         C         0.89434   0.33024   0.86752   -0.095660           
         C         C         0.10949   0.32870   0.87157   -0.095599           
         C         C         0.89104   0.66809   0.86321   -0.094833           
         C         C         0.39228   0.82950   0.62380   -0.095997           
         C         C         0.60998   0.16842   0.64872   -0.095681           
         C         C         0.35988   0.15989   0.54160   0.029531  
         C         C         0.63972   0.84572   0.53141   0.031003  
         C         C         0.14005   0.65861   0.98318   0.029844  
         C         C         0.86136   0.34458   0.95543   0.033464  
         C         C         0.14305   0.34254   0.95685   0.031384  
         C         C         0.85874   0.65424   0.95580   0.032011  
         C         C         0.36073   0.84161   0.52277   0.029035  
         C         C         0.64078   0.15445   0.54696   0.029372  
         C         C         0.36499   0.11905   0.96119   -0.125963           
         C         C         0.63747   0.87672   0.97268   -0.126770           
         C         C         0.13684   0.62060   0.55537   -0.125867           
         C         C         0.86149   0.37707   0.53503   -0.125392           
         C         C         0.13618   0.38040   0.53180   -0.127115           
         C         C         0.85815   0.61996   0.52888   -0.125626           
         C         C         0.36209   0.88174   0.95596   -0.123491           
         C         C         0.64190   0.11929   0.98276   -0.126095           
         C         C         0.39842   0.09566   0.98196   -0.132861           
         C         C         0.60509   0.90157   0.99361   -0.130262           
         C         C         0.10355   0.59663   0.54139   -0.131630           
         C         C         0.89403   0.40178   0.51687   -0.131778           
         C         C         0.10268   0.40378   0.51462   -0.131381           
         C         C         0.89156   0.59612   0.51803   -0.130741           
         C         C         0.39545   0.90533   0.97776   -0.134458           
         C         C         0.60896   0.09513   0.00300   -0.133319           
         C         C         0.32573   0.18567   0.52071   0.126060  
         C         C         0.67350   0.81967   0.50405   0.122952  
         C         C         0.17437   0.68434   -0.00218  0.127794  
         C         C         0.82661   0.31944   0.97316   0.123277  
         C         C         0.17708   0.31656   0.97665   0.126040  
         C         C         0.82378   0.67910   0.97233   0.125700  
         C         C         0.32642   0.81574   0.50476   0.129491  
         C         C         0.67490   0.17991   0.51997   0.126271  
         C         C         0.78827   0.26619   0.94776   0.175902  
         C         C         0.21246   0.73721   0.96119   0.178746  
         C         C         0.71032   0.76520   0.52177   0.176018  
         C         C         0.28730   0.23893   0.54454   0.178035  
         C         C         0.71245   0.23388   0.53612   0.178209  
         C         C         0.28785   0.76291   0.53739   0.175732  
         C         C         0.78513   0.73203   0.94694   0.178794  
         C         C         0.21467   0.26271   0.95265   0.180001  
         C         C         0.77741   0.22756   0.90054   -0.198686           
         C         C         0.22336   0.77515   0.90688   -0.200065           
         C         C         0.72058   0.72652   0.56891   -0.197379           
         C         C         0.27572   0.27741   0.59149   -0.199066           
         C         C         0.72324   0.27275   0.58006   -0.198081           
         C         C         0.27650   0.72481   0.58843   -0.199424           
         C         C         0.77405   0.77065   0.90206   -0.198388           
         C         C         0.22535   0.22394   0.90611   -0.200715           
         N         N         0.32320   0.22192   0.58093   -0.331980           
         N         N         0.67495   0.78309   0.55909   -0.330212           
         N         N         0.17635   0.71989   0.93252   -0.332260           
         N         N         0.82406   0.28333   0.91192   -0.331142           
         N         N         0.17889   0.28014   0.91798   -0.332026           
         N         N         0.82131   0.71529   0.91362   -0.334385           
         N         N         0.32427   0.77975   0.56614   -0.332065           
         N         N         0.67700   0.21658   0.57555   -0.333932           
         C         C         0.26098   0.78829   0.94840   -0.020647           
         C         C         0.74042   0.21434   0.95002   -0.017752           
         C         C         0.23840   0.28992   0.54235   -0.021818           
         C         C         0.75781   0.71299   0.52381   -0.021119           
         C         C         0.23846   0.71245   0.54879   -0.021440           
         C         C         0.76057   0.28544   0.53315   -0.022457           
         C         C         0.26290   0.21106   0.95055   -0.019588           
         C         C         0.73659   0.78331   0.94863   -0.022389           
         S         S         0.77942   0.66746   0.56720   0.053106  
         S         S         0.21565   0.33536   0.57944   0.049699  
         S         S         0.71883   0.16827   0.91474   0.054165  
         S         S         0.28298   0.83351   0.90210   0.054153  
         S         S         0.71454   0.82907   0.91379   0.052320  
         S         S         0.28504   0.16532   0.91178   0.051227  
         S         S         0.78263   0.33101   0.57272   0.051609  
         S         S         0.21605   0.66740   0.59409   0.051140  
         H         H         0.79761   0.20964   0.82734   0.144018  
         H         H         0.20286   0.79274   0.83455   0.143869  
         H         H         0.69989   0.70894   0.64018   0.143523  
         H         H         0.29544   0.29592   0.66440   0.142785  
         H         H         0.70293   0.29128   0.65004   0.143552  
         H         H         0.29687   0.70637   0.65773   0.144240  
         H         H         0.79462   0.78923   0.83448   0.143903  
         H         H         0.20457   0.20566   0.83733   0.143798  
         H         H         0.39878   0.03720   0.66325   0.107333  
         H         H         0.59734   0.96448   0.69623   0.106622  
         H         H         0.10142   0.53796   0.85776   0.106215  
         H         H         0.90364   0.46323   0.82437   0.106095  
         H         H         0.10205   0.46564   0.83888   0.106169  
         H         H         0.90305   0.53579   0.82361   0.106375  
         H         H         0.39876   0.96473   0.65755   0.107148  
         H         H         0.59733   0.03720   0.70145   0.106516  
         H         H         0.44921   0.15915   0.73476   0.108798  
         H         H         0.55001   0.84335   0.72150   0.110780  
         H         H         0.05090   0.65649   0.78912   0.109003  
         H         H         0.95238   0.34255   0.77615   0.110886  
         H         H         0.05166   0.34214   0.78153   0.110082  
         H         H         0.94908   0.65572   0.77091   0.108769  
         H         H         0.44784   0.84503   0.73333   0.108585  
         H         H         0.55324   0.15648   0.75460   0.109398  
         H         H         0.39087   0.20251   0.69200   0.123457  
         H         H         0.60915   0.80144   0.67283   0.121966  
         H         H         0.10922   0.70005   0.82819   0.121214  
         H         H         0.89258   0.30100   0.81019   0.122736  
         H         H         0.11012   0.29888   0.81909   0.122733  
         H         H         0.88855   0.69679   0.80302   0.121167  
         H         H         0.39029   0.80096   0.68544   0.120721  
         H         H         0.61347   0.19708   0.70965   0.120825  
         H         H         0.34132   0.10860   0.88091   0.107853  
         H         H         0.66143   0.88609   0.89236   0.106602  
         H         H         0.16190   0.61012   0.62725   0.108405  
         H         H         0.83772   0.38611   0.61748   0.106420  
         H         H         0.15982   0.39040   0.61300   0.106631  
         H         H         0.83328   0.60994   0.60277   0.107774  
         H         H         0.33756   0.89293   0.88269   0.108534  
         H         H         0.66665   0.10833   0.90988   0.108128  
         H         H         0.40072   0.06758   0.91565   0.103666  
         H         H         0.60396   0.92977   0.92888   0.103242  
         H         H         0.10262   0.56855   0.60709   0.104789  
         H         H         0.89538   0.42952   0.58595   0.103644  
         H         H         0.10012   0.43119   0.58544   0.103953  
         H         H         0.89232   0.56801   0.58337   0.104751  
         H         H         0.39690   0.93406   0.91741   0.105321  
         H         H         0.60835   0.06608   0.94381   0.104378  
         C         C         0.49941   0.10500   0.60182   -0.183646           
         C         C         0.49928   0.89736   0.58796   -0.183202           
         C         C         0.00057   0.60417   0.92963   -0.183099           
         C         C         0.00294   0.39639   0.91497   -0.183889           
         C         C         0.49852   0.97973   0.63258   0.004861  
         C         C         0.49851   0.02235   0.63591   0.005211  
         C         C         0.00249   0.47898   0.88381   0.005256  
         C         C         0.00198   0.52157   0.88761   0.005696  
         H         H         0.50006   0.13659   0.57428   0.108417  
         H         H         0.49960   0.86590   0.55642   0.107122  
         H         H         -0.00009  0.63578   0.95877   0.108357  
         H         H         0.00304   0.36475   0.94115   0.105215 

