
##########################################################################
#               Crystallographic Information Format file
#               Produced by PyCifRW module
#
#  This is a CIF file.  CIF has been adopted by the International
#  Union of Crystallography as the standard for data archiving and
#  transmission.
#
#  For information on this file format, follow the CIF links at
#  http://www.iucr.org
##########################################################################

data_image0

_cell_length_a                          34.1108
_cell_length_b                          31.8982
_cell_length_c                          8.00501
_cell_angle_alpha                       89.82
_cell_angle_beta                        90.0427
_cell_angle_gamma                       90.0009
_symmetry_space_group_name_H-M          'P 1'
_space_group_name_Hall                  'P 1'
loop_
  _atom_site_type_symbol
  _atom_site_label
  _atom_site_fract_x
  _atom_site_fract_y
  _atom_site_fract_z
  _atom_site_charge
         C         C         0.46525   0.95550   0.12615   0.037493  
         C         C         0.53899   0.04465   0.14189   0.035780  
         C         C         0.03471   0.45560   0.37913   0.037384  
         C         C         0.96139   0.54503   0.38572   0.035594  
         C         C         0.03431   0.54533   0.39402   0.035807  
         C         C         0.96180   0.45509   0.37847   0.035231  
         C         C         0.46609   0.04515   0.13205   0.038488  
         C         C         0.53817   0.95467   0.13804   0.035856  
         C         C         0.43062   0.02196   0.15292   -0.134343           
         C         C         0.57322   0.97776   0.17050   -0.135501           
         C         C         0.06961   0.52229   0.36724   -0.134201           
         C         C         0.92666   0.47861   0.35291   -0.133407           
         C         C         0.06975   0.47952   0.35834   -0.132936           
         C         C         0.92653   0.52148   0.35518   -0.135873           
         C         C         0.43018   0.97916   0.14940   -0.133136           
         C         C         0.57363   0.02065   0.17252   -0.136059           
         C         C         0.46682   0.08950   0.11320   0.023913  
         C         C         0.53753   0.91038   0.11656   0.022238  
         C         C         0.03380   0.58962   0.41526   0.023567  
         C         C         0.96240   0.41051   0.39057   0.023211  
         C         C         0.03470   0.41103   0.38926   0.023945  
         C         C         0.96146   0.58938   0.40498   0.022506  
         C         C         0.46520   0.91128   0.10327   0.023673  
         C         C         0.53916   0.08908   0.12258   0.021525  
         C         C         0.43110   0.11529   0.09661   0.070507  
         C         C         0.57298   0.88391   0.10724   0.073298  
         C         C         0.06948   0.61569   0.42850   0.070204  
         C         C         0.92692   0.38410   0.40115   0.069202  
         C         C         0.07077   0.38555   0.39727   0.071239  
         C         C         0.92549   0.61523   0.40801   0.070840  
         C         C         0.42932   0.88581   0.08333   0.070851  
         C         C         0.57500   0.11506   0.11179   0.072399  
         C         C         0.42931   0.15482   0.17486   -0.132640           
         C         C         0.57254   0.84351   0.17990   -0.132547           
         C         C         0.07012   0.65548   0.35072   -0.134521           
         C         C         0.92626   0.34473   0.32094   -0.130664           
         C         C         0.07243   0.34657   0.31457   -0.132888           
         C         C         0.92513   0.65434   0.32519   -0.131308           
         C         C         0.42805   0.84543   0.15580   -0.130714           
         C         C         0.57513   0.15558   0.18258   -0.130947           
         C         C         0.39662   0.18035   0.15898   -0.093279           
         C         C         0.60405   0.81631   0.16404   -0.093792           
         C         C         0.10247   0.68168   0.36194   -0.091431           
         C         C         0.89423   0.31808   0.33378   -0.092038           
         C         C         0.10537   0.32115   0.32494   -0.093983           
         C         C         0.89255   0.68039   0.32910   -0.094333           
         C         C         0.39556   0.81973   0.13859   -0.096090           
         C         C         0.60682   0.18248   0.16454   -0.094707           
         C         C         0.36411   0.16696   0.06486   -0.010244           
         C         C         0.63771   0.82886   0.07570   -0.007655           
         C         C         0.13605   0.66868   0.45036   -0.010003           
         C         C         0.86108   0.33023   0.42632   -0.012082           
         C         C         0.13830   0.33418   0.41731   -0.009893           
         C         C         0.85872   0.66810   0.41699   -0.007604           
         C         C         0.36252   0.83365   0.04871   -0.005587           
         C         C         0.64030   0.16957   0.07591   -0.010446           
         C         C         0.36159   0.13031   0.48936   -0.108294           
         C         C         0.63636   0.87587   0.48999   -0.109780           
         C         C         0.13819   0.62834   0.03699   -0.109734           
         C         C         0.86429   0.37412   0.00495   -0.110007           
         C         C         0.14200   0.37232   -0.00337  -0.109312           
         C         C         0.86081   0.62421   0.00137   -0.110293           
         C         C         0.36246   0.87100   0.47198   -0.110953           
         C         C         0.63670   0.12526   0.49818   -0.109768           
         C         C         0.39415   0.10430   0.50489   -0.133435           
         C         C         0.60342   0.90102   0.51210   -0.134610           
         C         C         0.10512   0.60298   0.02376   -0.133165           
         C         C         0.89778   0.39877   0.99206   -0.132597           
         C         C         0.10911   0.39800   0.98627   -0.134597           
         C         C         0.89451   0.59972   0.99333   -0.134996           
         C         C         0.39490   0.89708   0.49086   -0.135632           
         C         C         0.60348   0.10039   0.51775   -0.134684           
         C         C         0.33059   0.19445   0.04972   0.329192  
         C         C         0.67010   0.80001   0.05600   0.329387  
         C         C         0.16962   0.69636   0.45983   0.331056  
         C         C         0.82771   0.30236   0.43785   0.331207  
         C         C         0.17213   0.30696   0.42930   0.330508  
         C         C         0.82532   0.69611   0.42426   0.329592  
         C         C         0.32896   0.80599   0.03851   0.324903  
         C         C         0.67294   0.19819   0.05661   0.330385  
         C         C         0.78679   0.25139   0.42454   0.135963  
         C         C         0.21052   0.74722   0.44097   0.136604  
         C         C         0.70958   0.74770   0.05399   0.136035  
         C         C         0.29029   0.24592   0.05555   0.137523  
         C         C         0.71321   0.24984   0.06335   0.134719  
         C         C         0.28821   0.75522   0.06553   0.134547  
         C         C         0.78452   0.74714   0.40676   0.135669  
         C         C         0.21303   0.25603   0.42228   0.135550  
         C         C         0.76729   0.21335   0.39445   -0.248100           
         C         C         0.22989   0.78522   0.40809   -0.248976           
         C         C         0.72838   0.70885   0.07447   -0.248484           
         C         C         0.27141   0.28441   0.08171   -0.247623           
         C         C         0.73269   0.28793   0.09316   -0.247441           
         C         C         0.26888   0.71786   0.10849   -0.248164           
         C         C         0.76496   0.78506   0.37349   -0.248442           
         C         C         0.23228   0.21776   0.39613   -0.247852           
         N         N         0.32733   0.23293   0.10477   -0.386660           
         N         N         0.67263   0.76081   0.10474   -0.389372           
         N         N         0.17282   0.73448   0.39971   -0.389807           
         N         N         0.82392   0.26453   0.37620   -0.388656           
         N         N         0.17616   0.26896   0.37003   -0.386321           
         N         N         0.82130   0.73334   0.35641   -0.386500           
         N         N         0.32526   0.76915   0.10993   -0.384622           
         N         N         0.67641   0.23639   0.11491   -0.388272           
         C         C         0.26802   0.78617   0.46777   0.158262  
         C         C         0.73015   0.21164   0.46413   0.158619  
         C         C         0.23409   0.28591   0.01398   0.159405  
         C         C         0.76599   0.70803   0.00920   0.157919  
         C         C         0.23164   0.71492   0.04069   0.157561  
         C         C         0.76993   0.28953   0.02430   0.157344  
         C         C         0.26922   0.21623   0.46769   0.159116  
         C         C         0.72843   0.78764   0.44857   0.158417  
         O         O         0.79199   0.67479   0.01096   -0.188344           
         O         O         0.20824   0.31917   0.01837   -0.186330           
         O         O         0.70395   0.17856   0.45909   -0.186019           
         O         O         0.29439   0.81898   0.45739   -0.185899           
         O         O         0.70235   0.82090   0.44222   -0.186278           
         O         O         0.29531   0.18313   0.46450   -0.185260           
         O         O         0.79659   0.32223   0.03244   -0.187169           
         O         O         0.20530   0.68219   0.05808   -0.183785           
         H         H         0.40343   0.03898   0.17202   0.107041  
         H         H         0.60019   0.96061   0.19380   0.106512  
         H         H         0.09689   0.53940   0.35155   0.105730  
         H         H         0.89952   0.46182   0.32924   0.106146  
         H         H         0.09702   0.46311   0.33378   0.106850  
         H         H         0.89936   0.53832   0.33241   0.105869  
         H         H         0.40266   0.96251   0.16569   0.106340  
         H         H         0.60089   0.03698   0.19846   0.107116  
         H         H         0.45348   0.16478   0.25406   0.109753  
         H         H         0.54716   0.83389   0.25266   0.109211  
         H         H         0.04509   0.66526   0.27589   0.109175  
         H         H         0.95093   0.33565   0.24310   0.107896  
         H         H         0.04773   0.33670   0.23812   0.109316  
         H         H         0.95067   0.66379   0.25303   0.108386  
         H         H         0.45269   0.83468   0.23080   0.109538  
         H         H         0.55014   0.16560   0.25672   0.109022  
         H         H         0.39514   0.21049   0.22170   0.121911  
         H         H         0.60348   0.78533   0.22108   0.122650  
         H         H         0.10270   0.71206   0.29995   0.121434  
         H         H         0.89384   0.28803   0.26993   0.121143  
         H         H         0.10665   0.29128   0.26009   0.121534  
         H         H         0.89239   0.71020   0.26277   0.122222  
         H         H         0.39460   0.78895   0.19714   0.122593  
         H         H         0.60652   0.21353   0.22030   0.123343  
         H         H         0.33679   0.12063   0.41339   0.114714  
         H         H         0.66062   0.88680   0.41327   0.114412  
         H         H         0.16309   0.61816   0.11164   0.114989  
         H         H         0.83923   0.38508   0.07623   0.115273  
         H         H         0.16754   0.38259   0.06663   0.115629  
         H         H         0.83568   0.61344   0.07293   0.115518  
         H         H         0.33807   0.88063   0.39324   0.115290  
         H         H         0.66076   0.11469   0.41998   0.114432  
         H         H         0.39469   0.07468   0.43823   0.105784  
         H         H         0.60193   0.93138   0.45041   0.103557  
         H         H         0.10406   0.57339   0.09139   0.105770  
         H         H         0.89901   0.42857   0.05733   0.105735  
         H         H         0.10905   0.42772   0.05233   0.107117  
         H         H         0.89558   0.57005   0.06055   0.106703  
         H         H         0.39589   0.92675   0.42378   0.105538  
         H         H         0.60175   0.07062   0.45252   0.104378  
         H         H         0.78022   0.18828   0.32160   0.158582  
         H         H         0.21611   0.81101   0.34153   0.159442  
         H         H         0.71474   0.68253   0.13799   0.159263  
         H         H         0.28485   0.30981   0.15131   0.159467  
         H         H         0.71978   0.31308   0.16581   0.158283  
         H         H         0.28204   0.69428   0.18889   0.158163  
         H         H         0.77746   0.80959   0.29595   0.157470  
         H         H         0.21917   0.19237   0.32553   0.158783  
         C         C         0.50313   0.10973   0.10592   -0.182476           
         C         C         0.50127   0.89046   0.09733   -0.182423           
         C         C         0.99745   0.60993   0.42211   -0.183508           
         C         C         0.99871   0.39018   0.39733   -0.183211           
         C         C         0.50194   0.97748   0.13384   0.002900  
         C         C         0.50237   0.02248   0.13613   0.004773  
         C         C         0.99814   0.47776   0.38266   0.002956  
         C         C         0.99793   0.52276   0.38857   0.005734  
         H         H         0.50335   0.14319   0.07980   0.105042  
         H         H         0.50122   0.85706   0.07099   0.104290  
         H         H         0.99716   0.64348   0.44561   0.105344  
         H         H         0.99896   0.35641   0.41583   0.106289  
         C         C         0.46168   0.95559   0.63136   0.035632  
         C         C         0.53452   0.04520   0.64974   0.035149  
         C         C         0.03920   0.45560   0.87435   0.036563  
         C         C         0.96517   0.54445   0.87532   0.037036  
         C         C         0.03793   0.54551   0.88731   0.034383  
         C         C         0.96631   0.45482   0.86958   0.037109  
         C         C         0.46167   0.04567   0.63574   0.033904  
         C         C         0.53449   0.95591   0.64657   0.033902  
         C         C         0.42635   0.02198   0.65481   -0.137336           
         C         C         0.56923   0.97903   0.68371   -0.132560           
         C         C         0.07341   0.52278   0.85941   -0.134521           
         C         C         0.93124   0.47793   0.83748   -0.134011           
         C         C         0.07395   0.47997   0.85163   -0.135916           
         C         C         0.93072   0.52072   0.83922   -0.134376           
         C         C         0.42634   0.97908   0.65212   -0.135190           
         C         C         0.56926   0.02184   0.68512   -0.133788           
         C         C         0.46248   0.09009   0.61651   0.022805  
         C         C         0.53474   0.91189   0.62152   0.024842  
         C         C         0.03680   0.58964   0.91213   0.023214  
         C         C         0.96687   0.41048   0.88853   0.023284  
         C         C         0.03929   0.41106   0.88918   0.020554  
         C         C         0.96455   0.58861   0.89920   0.023022  
         C         C         0.46250   0.91129   0.60976   0.021043  
         C         C         0.53477   0.08937   0.62680   0.024346  
         C         C         0.42712   0.11647   0.59883   0.069907  
         C         C         0.57106   0.88707   0.60600   0.072167  
         C         C         0.07230   0.61568   0.92962   0.070779  
         C         C         0.93084   0.38508   0.90214   0.070528  
         C         C         0.07522   0.38530   0.89954   0.071826  
         C         C         0.92802   0.61347   0.90636   0.071203  
         C         C         0.42722   0.88493   0.58904   0.072188  
         C         C         0.57121   0.11408   0.61248   0.071556  
         C         C         0.42642   0.15656   0.67319   -0.130777           
         C         C         0.57323   0.84696   0.67975   -0.132352           
         C         C         0.07355   0.65541   0.85184   -0.132405           
         C         C         0.92919   0.34501   0.82845   -0.131607           
         C         C         0.07562   0.34515   0.82554   -0.132334           
         C         C         0.92642   0.65321   0.82859   -0.131364           
         C         C         0.42606   0.84492   0.66491   -0.131795           
         C         C         0.57379   0.15368   0.68933   -0.133292           
         C         C         0.39431   0.18293   0.65694   -0.095211           
         C         C         0.60586   0.82161   0.65851   -0.094645           
         C         C         0.10613   0.68113   0.86594   -0.093448           
         C         C         0.89617   0.31989   0.84287   -0.093402           
         C         C         0.10799   0.31902   0.83767   -0.092811           
         C         C         0.89303   0.67801   0.83689   -0.092977           
         C         C         0.39408   0.81851   0.64550   -0.096374           
         C         C         0.60677   0.17870   0.67090   -0.094112           
         C         C         0.36119   0.16994   0.56599   -0.011766           
         C         C         0.63784   0.83564   0.56223   -0.008839           
         C         C         0.13910   0.66769   0.95742   -0.010819           
         C         C         0.86307   0.33429   0.93053   -0.009422           
         C         C         0.14183   0.33239   0.92273   -0.009352           
         C         C         0.85963   0.66375   0.92328   -0.008669           
         C         C         0.36152   0.83145   0.55017   -0.005101           
         C         C         0.63861   0.16501   0.57334   -0.008934           
         C         C         0.36550   0.12775   0.98547   -0.111354           
         C         C         0.63886   0.86928   0.00517   -0.108647           
         C         C         0.13589   0.62916   0.52863   -0.110302           
         C         C         0.86134   0.36930   0.50732   -0.109130           
         C         C         0.13705   0.37294   0.50040   -0.110387           
         C         C         0.85865   0.62918   0.50036   -0.111239           
         C         C         0.36339   0.87361   0.97402   -0.110156           
         C         C         0.64094   0.12906   0.00687   -0.107711           
         C         C         0.39864   0.10262   0.00059   -0.132836           
         C         C         0.60691   0.89609   0.01980   -0.136221           
         C         C         0.10298   0.60346   0.51928   -0.132177           
         C         C         0.89385   0.39548   0.49563   -0.133717           
         C         C         0.10365   0.39782   0.49146   -0.132394           
         C         C         0.89154   0.60340   0.49599   -0.132280           
         C         C         0.39641   0.89899   0.99069   -0.134883           
         C         C         0.60880   0.10251   0.02442   -0.135588           
         C         C         0.32795   0.19789   0.55116   0.330348  
         C         C         0.67090   0.80764   0.54097   0.326975  
         C         C         0.17276   0.69517   0.96552   0.329973  
         C         C         0.82909   0.30737   0.94408   0.327768  
         C         C         0.17510   0.30443   0.93499   0.328373  
         C         C         0.82561   0.69075   0.93406   0.327553  
         C         C         0.32799   0.80377   0.53700   0.329196  
         C         C         0.67185   0.19276   0.55160   0.327574  
         C         C         0.78779   0.25690   0.93107   0.137019  
         C         C         0.21362   0.74573   0.93777   0.134678  
         C         C         0.71114   0.75607   0.54983   0.135147  
         C         C         0.28733   0.24917   0.55826   0.133718  
         C         C         0.71225   0.24422   0.55728   0.136127  
         C         C         0.28706   0.75292   0.55377   0.137554  
         C         C         0.78510   0.74210   0.92886   0.137764  
         C         C         0.21536   0.25287   0.92635   0.135147  
         C         C         0.76825   0.21899   0.90049   -0.247220           
         C         C         0.23297   0.78303   0.89442   -0.248548           
         C         C         0.73060   0.71823   0.58311   -0.246830           
         C         C         0.26787   0.28734   0.58581   -0.248566           
         C         C         0.73154   0.28238   0.58620   -0.246833           
         C         C         0.26765   0.71502   0.58742   -0.249154           
         C         C         0.76631   0.78089   0.90814   -0.245560           
         C         C         0.23428   0.21434   0.90049   -0.246846           
         N         N         0.32435   0.23615   0.60865   -0.387531           
         N         N         0.67496   0.77008   0.60529   -0.383824           
         N         N         0.17659   0.73185   0.89310   -0.385293           
         N         N         0.82493   0.26963   0.88247   -0.384403           
         N         N         0.17822   0.26606   0.87826   -0.386685           
         N         N         0.82254   0.72970   0.88312   -0.386411           
         N         N         0.32476   0.76547   0.59513   -0.390092           
         N         N         0.67567   0.23084   0.61050   -0.386063           
         C         C         0.27013   0.78606   0.96296   0.158377  
         C         C         0.73125   0.21721   0.97079   0.160620  
         C         C         0.23085   0.28885   0.51458   0.160647  
         C         C         0.76703   0.71566   0.50784   0.158043  
         C         C         0.22954   0.71410   0.52790   0.158607  
         C         C         0.76869   0.28398   0.51705   0.156154  
         C         C         0.27166   0.21272   0.96826   0.157141  
         C         C         0.72873   0.78163   0.97294   0.157975  
         O         O         0.79321   0.68276   0.51795   -0.184923           
         O         O         0.20444   0.32170   0.51875   -0.188521           
         O         O         0.70538   0.18387   0.96690   -0.186621           
         O         O         0.29640   0.81884   0.94583   -0.182779           
         O         O         0.70336   0.81526   0.97468   -0.185007           
         O         O         0.29758   0.17933   0.96592   -0.186423           
         O         O         0.79505   0.31678   0.52540   -0.184300           
         O         O         0.20308   0.68143   0.54111   -0.185269           
         H         H         0.39889   0.03863   0.67263   0.107571  
         H         H         0.59597   0.96190   0.71153   0.106644  
         H         H         0.10051   0.54014   0.84251   0.106387  
         H         H         0.90450   0.46080   0.80973   0.106194  
         H         H         0.10139   0.46396   0.82611   0.106768  
         H         H         0.90365   0.53728   0.81156   0.105965  
         H         H         0.39886   0.96224   0.66707   0.106997  
         H         H         0.59599   0.03884   0.71410   0.106648  
         H         H         0.45111   0.16635   0.74975   0.109568  
         H         H         0.54919   0.83617   0.75790   0.109833  
         H         H         0.04901   0.66537   0.77448   0.110207  
         H         H         0.95394   0.33409   0.75489   0.110024  
         H         H         0.05035   0.33485   0.75364   0.109827  
         H         H         0.95150   0.66410   0.75656   0.109879  
         H         H         0.45021   0.83535   0.74532   0.108626  
         H         H         0.54972   0.16424   0.76774   0.109399  
         H         H         0.39379   0.21344   0.71719   0.122823  
         H         H         0.60750   0.79085   0.71693   0.121867  
         H         H         0.10725   0.71141   0.80337   0.121324  
         H         H         0.89493   0.28928   0.78380   0.122120  
         H         H         0.10801   0.28822   0.77990   0.121895  
         H         H         0.89180   0.70835   0.77485   0.121470  
         H         H         0.39317   0.78812   0.70745   0.121827  
         H         H         0.60868   0.20889   0.73301   0.121387  
         H         H         0.34107   0.11786   0.90764   0.115332  
         H         H         0.66449   0.87899   0.93444   0.115640  
         H         H         0.16131   0.61928   0.60063   0.115675  
         H         H         0.83649   0.37841   0.58388   0.114427  
         H         H         0.16185   0.38280   0.57596   0.114918  
         H         H         0.83311   0.61978   0.57233   0.114972  
         H         H         0.33856   0.88424   0.89983   0.115949  
         H         H         0.66627   0.11897   0.93521   0.115747  
         H         H         0.40004   0.07334   0.93190   0.104338  
         H         H         0.60758   0.92628   0.95650   0.105673  
         H         H         0.10271   0.57408   0.58843   0.104520  
         H         H         0.89434   0.42460   0.56561   0.104715  
         H         H         0.10215   0.42647   0.56432   0.103590  
         H         H         0.89158   0.57432   0.56715   0.105100  
         H         H         0.39735   0.92893   0.92563   0.104333  
         H         H         0.60923   0.07212   0.96358   0.105577  
         H         H         0.78110   0.19390   0.82741   0.159037  
         H         H         0.21987   0.80637   0.81263   0.158715  
         H         H         0.71839   0.69402   0.66316   0.157668  
         H         H         0.28086   0.31262   0.65749   0.158694  
         H         H         0.71845   0.30745   0.65863   0.158893  
         H         H         0.28126   0.68944   0.65577   0.159721  
         H         H         0.78013   0.80748   0.84718   0.159697  
         H         H         0.22060   0.18882   0.83268   0.158468  
         C         C         0.49895   0.11023   0.60976   -0.184144           
         C         C         0.49893   0.89112   0.60297   -0.182487           
         C         C         0.00024   0.60957   0.91960   -0.183477           
         C         C         0.00317   0.39026   0.89918   -0.182530           
         C         C         0.49800   0.97814   0.64102   0.004369  
         C         C         0.49801   0.02307   0.64268   0.006911  
         C         C         0.00250   0.47759   0.87475   0.003956  
         C         C         0.00187   0.52254   0.87955   0.005367  
         H         H         0.49953   0.14368   0.58341   0.106523  
         H         H         0.49950   0.85778   0.57541   0.107124  
         H         H         -0.00046  0.64289   0.94744   0.106158  
         H         H         0.00337   0.35663   0.92154   0.104508 

