
##########################################################################
#               Crystallographic Information Format file
#               Produced by PyCifRW module
#
#  This is a CIF file.  CIF has been adopted by the International
#  Union of Crystallography as the standard for data archiving and
#  transmission.
#
#  For information on this file format, follow the CIF links at
#  http://www.iucr.org
##########################################################################

data_image0

_cell_length_a                          33.3034
_cell_length_b                          35.6288
_cell_length_c                          8.12942
_cell_angle_alpha                       89.9659
_cell_angle_beta                        89.6966
_cell_angle_gamma                       90.0657
_symmetry_space_group_name_H-M          'P 1'
_space_group_name_Hall                  'P 1'
loop_
  _atom_site_type_symbol
  _atom_site_label
  _atom_site_fract_x
  _atom_site_fract_y
  _atom_site_fract_z
  _atom_site_charge
         C         C         0.46048   0.95940   0.50586   0.033470  
         C         C         0.53486   0.04004   0.50543   0.038498  
         C         C         0.04023   0.46056   0.00333   0.033523  
         C         C         0.96472   0.54015   0.00260   0.034641  
         C         C         0.03937   0.54099   0.01286   0.032904  
         C         C         0.96558   0.45991   0.99501   0.035187  
         C         C         0.46016   0.03990   0.50265   0.034059  
         C         C         0.53510   0.95980   0.50956   0.033727  
         C         C         0.42410   0.01872   0.52562   -0.135504           
         C         C         0.57107   0.98091   0.53244   -0.133958           
         C         C         0.07574   0.52047   0.98826   -0.136587           
         C         C         0.92964   0.48066   0.96625   -0.132799           
         C         C         0.07613   0.48211   0.98287   -0.134881           
         C         C         0.92918   0.51901   0.97016   -0.135391           
         C         C         0.42421   0.98032   0.52637   -0.136309           
         C         C         0.57096   0.01925   0.53022   -0.135475           
         C         C         0.46045   0.07967   0.48460   0.022325  
         C         C         0.53516   0.92006   0.49413   0.026201  
         C         C         0.03843   0.58059   0.03566   0.023628  
         C         C         0.96601   0.42014   0.01090   0.025041  
         C         C         0.04014   0.42075   0.01828   0.024612  
         C         C         0.96446   0.57973   0.02456   0.022762  
         C         C         0.46123   0.91963   0.49089   0.024671  
         C         C         0.53449   0.07976   0.48846   0.023612  
         C         C         0.42370   0.10255   0.46893   0.069304  
         C         C         0.57213   0.89749   0.48003   0.070810  
         C         C         0.07463   0.60415   0.05354   0.072554  
         C         C         0.92912   0.39713   0.02003   0.070976  
         C         C         0.07701   0.39796   0.03136   0.071371  
         C         C         0.92744   0.60240   0.03205   0.072532  
         C         C         0.42509   0.89601   0.47511   0.069672  
         C         C         0.57135   0.10263   0.47652   0.070829  
         C         C         0.42552   0.13739   0.05615   -0.131502           
         C         C         0.57678   0.86136   0.04858   -0.128533           
         C         C         0.07363   0.63896   0.46789   -0.134264           
         C         C         0.92280   0.36261   0.43649   -0.130775           
         C         C         0.07434   0.36324   0.43784   -0.132117           
         C         C         0.92156   0.63738   0.45196   -0.132025           
         C         C         0.42480   0.86208   0.04399   -0.131338           
         C         C         0.57824   0.13769   0.04570   -0.127230           
         C         C         0.39180   0.15994   0.04233   -0.102581           
         C         C         0.61036   0.83857   0.03395   -0.103392           
         C         C         0.10706   0.66193   0.48228   -0.104165           
         C         C         0.88959   0.33926   0.45174   -0.103316           
         C         C         0.10757   0.34014   0.45289   -0.104697           
         C         C         0.88769   0.65989   0.46208   -0.102379           
         C         C         0.39109   0.83959   0.02715   -0.102433           
         C         C         0.61217   0.16001   0.03054   -0.104036           
         C         C         0.35488   0.14904   0.43971   0.050485  
         C         C         0.64060   0.85100   0.44350   0.051894  
         C         C         0.14241   0.65193   0.08357   0.050140  
         C         C         0.86080   0.34971   0.04749   0.053393  
         C         C         0.14536   0.35075   0.05805   0.049504  
         C         C         0.85907   0.64946   0.05363   0.050532  
         C         C         0.35907   0.84672   0.43790   0.050795  
         C         C         0.63960   0.14984   0.44686   0.050673  
         C         C         0.35679   0.11408   0.35974   -0.127386           
         C         C         0.63809   0.88555   0.36042   -0.128079           
         C         C         0.14138   0.61673   0.16179   -0.125689           
         C         C         0.86181   0.38485   0.12618   -0.128461           
         C         C         0.14413   0.38581   0.13737   -0.127428           
         C         C         0.85997   0.61463   0.13511   -0.125527           
         C         C         0.36017   0.88136   0.35533   -0.125731           
         C         C         0.63782   0.11533   0.36329   -0.125785           
         C         C         0.39048   0.09121   0.37461   -0.133495           
         C         C         0.60458   0.90850   0.37950   -0.136116           
         C         C         0.10821   0.59316   0.14612   -0.136660           
         C         C         0.89522   0.40820   0.11197   -0.135604           
         C         C         0.11062   0.40898   0.12413   -0.135524           
         C         C         0.89346   0.59137   0.12345   -0.134594           
         C         C         0.39244   0.90582   0.37498   -0.135340           
         C         C         0.60445   0.09199   0.37900   -0.134450           
         C         C         0.31949   0.17271   0.42307   0.065902  
         C         C         0.67540   0.82668   0.42122   0.066649  
         C         C         0.17777   0.67594   0.09572   0.070832  
         C         C         0.82587   0.32526   0.06717   0.066238  
         C         C         0.18035   0.32644   0.07362   0.070100  
         C         C         0.82395   0.67369   0.06835   0.065961  
         C         C         0.32471   0.82174   0.41914   0.070688  
         C         C         0.67467   0.17405   0.42854   0.066105  
         C         C         0.78607   0.27398   0.98657   0.199536  
         C         C         0.21666   0.72701   0.00522   0.197503  
         C         C         0.71459   0.77480   0.50030   0.196727  
         C         C         0.28024   0.22472   0.50061   0.197232  
         C         C         0.71443   0.22520   0.50886   0.196963  
         C         C         0.28334   0.77306   0.51308   0.200527  
         C         C         0.78474   0.72471   0.98348   0.196185  
         C         C         0.21844   0.27409   0.99477   0.197708  
         C         C         0.78384   0.23764   0.43182   -0.142011           
         C         C         0.21461   0.76010   0.43275   -0.142475           
         C         C         0.71542   0.73771   0.05826   -0.142257           
         C         C         0.28864   0.26189   0.05406   -0.143506           
         C         C         0.71776   0.25916   0.07071   -0.140134           
         C         C         0.28669   0.74007   0.06446   -0.145978           
         C         C         0.78167   0.75820   0.40749   -0.144418           
         C         C         0.21427   0.24199   0.39991   -0.141390           
         N         N         0.31411   0.20170   0.51661   -0.299363           
         N         N         0.68122   0.79833   0.51784   -0.298112           
         N         N         0.18226   0.70449   -0.00118  -0.299858           
         N         N         0.82005   0.29698   0.97030   -0.297214           
         N         N         0.18443   0.29692   0.98221   -0.300274           
         N         N         0.81903   0.70213   0.97123   -0.298981           
         N         N         0.31760   0.79560   0.52596   -0.296226           
         N         N         0.68007   0.20272   0.52382   -0.296650           
         C         C         0.24727   0.78432   0.43768   -0.171802           
         C         C         0.75137   0.21324   0.44146   -0.169762           
         C         C         0.25656   0.28666   0.04554   -0.167259           
         C         C         0.74762   0.71305   0.05040   -0.165280           
         C         C         0.25447   0.71533   0.06352   -0.166339           
         C         C         0.74954   0.28439   0.06234   -0.168205           
         C         C         0.24575   0.21657   0.40710   -0.168146           
         C         C         0.75033   0.78379   0.41511   -0.168138           
         H         H         0.40049   0.03449   0.04889   0.105331  
         H         H         0.60260   0.96533   0.05125   0.106346  
         H         H         0.09969   0.53603   0.47097   0.105881  
         H         H         0.89706   0.46654   0.45206   0.105231  
         H         H         0.09994   0.46753   0.45588   0.105275  
         H         H         0.89692   0.53502   0.46118   0.105169  
         H         H         0.40023   0.96583   0.05115   0.106318  
         H         H         0.60291   0.03381   0.04975   0.106818  
         H         H         0.45002   0.14595   0.13581   0.107874  
         H         H         0.55158   0.85235   0.12478   0.108768  
         H         H         0.04911   0.64735   0.38803   0.107483  
         H         H         0.94727   0.35474   0.35430   0.107466  
         H         H         0.04984   0.35489   0.35779   0.107194  
         H         H         0.94641   0.64548   0.37203   0.108127  
         H         H         0.44949   0.85288   0.12134   0.109222  
         H         H         0.55332   0.14702   0.12239   0.108237  
         H         H         0.38938   0.18626   0.10928   0.112605  
         H         H         0.61176   0.81152   0.09579   0.114521  
         H         H         0.10921   0.68828   0.41517   0.113334  
         H         H         0.88782   0.31291   0.38452   0.113055  
         H         H         0.10934   0.31367   0.38677   0.112979  
         H         H         0.88570   0.68593   0.39293   0.112315  
         H         H         0.38891   0.81258   0.08896   0.111910  
         H         H         0.61418   0.18691   0.09296   0.113408  
         H         H         0.33182   0.10521   0.28306   0.103644  
         H         H         0.66218   0.89401   0.27718   0.104705  
         H         H         0.16655   0.60811   0.23783   0.104911  
         H         H         0.83646   0.39338   0.20255   0.105990  
         H         H         0.16934   0.39449   0.21317   0.105601  
         H         H         0.83448   0.60618   0.21101   0.105978  
         H         H         0.33578   0.88874   0.27291   0.104470  
         H         H         0.66250   0.10722   0.28251   0.104643  
         H         H         0.39188   0.06492   0.30705   0.103289  
         H         H         0.60236   0.93443   0.30963   0.103523  
         H         H         0.10742   0.56658   0.21186   0.104948  
         H         H         0.89614   0.43446   0.17995   0.105364  
         H         H         0.10963   0.43517   0.19246   0.105201  
         H         H         0.89434   0.56519   0.19215   0.105102  
         H         H         0.39342   0.93195   0.30597   0.104459  
         H         H         0.60313   0.06597   0.30946   0.103903  
         H         H         0.29844   0.16460   0.32569   0.065669  
         H         H         0.69523   0.83343   0.31667   0.066964  
         H         H         0.19964   0.66867   0.19144   0.067584  
         H         H         0.80563   0.33196   0.17039   0.067435  
         H         H         0.20225   0.33426   0.16834   0.067423  
         H         H         0.80276   0.66677   0.16815   0.069938  
         H         H         0.30592   0.82605   0.30990   0.068691  
         H         H         0.69540   0.16682   0.32760   0.067039  
         H         H         0.81231   0.22867   0.37873   0.116966  
         H         H         0.18670   0.76830   0.37407   0.119138  
         H         H         0.68684   0.72916   0.11192   0.119045  
         H         H         0.31807   0.27119   0.09487   0.118545  
         H         H         0.68963   0.26664   0.13086   0.117352  
         H         H         0.31592   0.73141   0.10990   0.118369  
         H         H         0.80920   0.76464   0.34060   0.118774  
         H         H         0.18769   0.23617   0.32711   0.116200  
         H         H         0.24486   0.81225   0.38447   0.109574  
         H         H         0.75440   0.18465   0.39623   0.110606  
         H         H         0.26070   0.31602   0.07802   0.108699  
         H         H         0.74420   0.68456   0.09659   0.109159  
         H         H         0.25859   0.68673   0.10731   0.109604  
         H         H         0.74610   0.31232   0.11456   0.109937  
         H         H         0.24358   0.19047   0.33859   0.110172  
         H         H         0.75355   0.81087   0.35478   0.111848  
         C         C         0.49752   0.09820   0.47815   -0.183219           
         C         C         0.49837   0.90136   0.48479   -0.184819           
         C         C         0.00107   0.59847   0.04261   -0.181716           
         C         C         0.00312   0.40203   0.02372   -0.185536           
         C         C         0.49769   0.97967   0.50737   0.005022  
         C         C         0.49755   0.01993   0.50525   0.002812  
         C         C         0.00271   0.48027   0.00133   0.005889  
         C         C         0.00228   0.52052   0.00554   0.006757  
         H         H         0.00033   0.62838   0.06883   0.105399  
         H         H         0.00318   0.37188   0.04443   0.106009  
         H         H         0.49767   0.12837   0.45759   0.106783  
         H         H         0.49859   0.87122   0.46376   0.107488  
         C         C         0.46412   0.95981   0.00435   0.034377  
         C         C         0.53915   0.03993   0.00308   0.035637  
         C         C         0.03576   0.46091   0.49565   0.033977  
         C         C         0.96078   0.54086   0.50667   0.033252  
         C         C         0.03544   0.54122   0.51036   0.035123  
         C         C         0.96105   0.46051   0.49532   0.032848  
         C         C         0.46452   0.04010   0.00476   0.034464  
         C         C         0.53878   0.95948   0.00388   0.034947  
         C         C         0.42834   0.01925   0.02955   -0.132900           
         C         C         0.57483   0.98043   0.02926   -0.134779           
         C         C         0.07171   0.52061   0.48492   -0.135256           
         C         C         0.92495   0.48154   0.47402   -0.134086           
         C         C         0.07184   0.48228   0.47691   -0.133265           
         C         C         0.92484   0.51989   0.47922   -0.135627           
         C         C         0.42817   0.98089   0.03001   -0.133876           
         C         C         0.57502   0.01880   0.02855   -0.139062           
         C         C         0.46499   0.07982   0.98722   0.025042  
         C         C         0.53831   0.91976   0.98523   0.021046  
         C         C         0.03486   0.58083   0.53254   0.023686  
         C         C         0.96147   0.42065   0.50719   0.023466  
         C         C         0.03550   0.42105   0.50695   0.024789  
         C         C         0.96089   0.58047   0.52743   0.024909  
         C         C         0.46422   0.92014   0.98427   0.023998  
         C         C         0.53900   0.07965   0.98462   0.022311  
         C         C         0.42813   0.10259   0.97366   0.071387  
         C         C         0.57513   0.89687   0.97146   0.071677  
         C         C         0.07148   0.60393   0.54897   0.073345  
         C         C         0.92482   0.39736   0.51981   0.070672  
         C         C         0.07221   0.39813   0.51982   0.071278  
         C         C         0.92381   0.60303   0.53781   0.071601  
         C         C         0.42719   0.89766   0.96786   0.070778  
         C         C         0.57596   0.10226   0.96869   0.070137  
         C         C         0.42171   0.13798   0.54680   -0.128871           
         C         C         0.57469   0.86259   0.56169   -0.131554           
         C         C         0.07548   0.64003   0.97933   -0.129202           
         C         C         0.92789   0.36180   0.94142   -0.132029           
         C         C         0.07858   0.36267   0.95241   -0.131718           
         C         C         0.92641   0.63749   0.95133   -0.133733           
         C         C         0.42398   0.86088   0.55562   -0.129989           
         C         C         0.57322   0.13746   0.55896   -0.132854           
         C         C         0.38807   0.16063   0.53344   -0.103290           
         C         C         0.60831   0.84000   0.54524   -0.104561           
         C         C         0.10859   0.66336   0.99328   -0.103490           
         C         C         0.89449   0.33864   0.95403   -0.102953           
         C         C         0.11184   0.33957   0.96536   -0.103206           
         C         C         0.89289   0.66045   0.96059   -0.099865           
         C         C         0.39161   0.83679   0.53861   -0.107014           
         C         C         0.60665   0.16048   0.54551   -0.103036           
         C         C         0.35935   0.14891   0.94287   0.049122  
         C         C         0.64379   0.85024   0.94008   0.050621  
         C         C         0.13961   0.65110   0.58139   0.052700  
         C         C         0.85689   0.34958   0.55256   0.049794  
         C         C         0.14009   0.35083   0.55259   0.053400  
         C         C         0.85479   0.64918   0.56090   0.048869  
         C         C         0.35825   0.85160   0.93231   0.050922  
         C         C         0.64535   0.14803   0.93633   0.051083  
         C         C         0.36203   0.11461   0.85802   -0.124147           
         C         C         0.64227   0.88544   0.86177   -0.128528           
         C         C         0.13734   0.61664   0.66559   -0.126553           
         C         C         0.85886   0.38395   0.63740   -0.126717           
         C         C         0.13795   0.38529   0.63640   -0.128361           
         C         C         0.85703   0.61519   0.64843   -0.126905           
         C         C         0.36061   0.88677   0.85410   -0.126843           
         C         C         0.64313   0.11295   0.85735   -0.126703           
         C         C         0.39568   0.09174   0.87429   -0.137918           
         C         C         0.60864   0.90837   0.87782   -0.134022           
         C         C         0.10405   0.59326   0.64803   -0.138917           
         C         C         0.89208   0.40745   0.62049   -0.134370           
         C         C         0.10476   0.40864   0.61931   -0.136770           
         C         C         0.89081   0.59236   0.63593   -0.135671           
         C         C         0.39440   0.90946   0.87233   -0.136357           
         C         C         0.60911   0.09046   0.87393   -0.135570           
         C         C         0.32400   0.17280   0.92530   0.067478  
         C         C         0.67906   0.82637   0.92054   0.067330  
         C         C         0.17503   0.67496   0.59656   0.066159  
         C         C         0.82176   0.32536   0.57197   0.069632  
         C         C         0.17502   0.32665   0.57195   0.068358  
         C         C         0.81933   0.67296   0.57567   0.069685  
         C         C         0.32260   0.82802   0.91567   0.068292  
         C         C         0.68089   0.17175   0.91922   0.068550  
         C         C         0.78116   0.27467   0.49211   0.199213  
         C         C         0.21628   0.72426   0.50569   0.193390  
         C         C         0.71855   0.77459   -0.00366  0.196453  
         C         C         0.28431   0.22398   0.00767   0.200980  
         C         C         0.72060   0.22305   0.00059   0.199570  
         C         C         0.28286   0.77703   0.00429   0.200633  
         C         C         0.77911   0.72310   0.48702   0.198057  
         C         C         0.21551   0.27619   0.48706   0.198530  
         C         C         0.78893   0.23784   0.91688   -0.144659           
         C         C         0.21284   0.76395   0.94506   -0.140901           
         C         C         0.71188   0.73952   0.57833   -0.140894           
         C         C         0.28141   0.25888   0.58793   -0.142073           
         C         C         0.71171   0.26223   0.56891   -0.143235           
         C         C         0.28506   0.73723   0.58621   -0.147576           
         C         C         0.78783   0.76150   0.92054   -0.143973           
         C         C         0.21402   0.23616   0.94913   -0.142317           
         N         N         0.31848   0.20141   0.02071   -0.296250           
         N         N         0.68436   0.79717   0.01267   -0.299203           
         N         N         0.18158   0.70219   0.49432   -0.297440           
         N         N         0.81551   0.29716   0.47502   -0.299434           
         N         N         0.18191   0.29946   0.47011   -0.298279           
         N         N         0.81294   0.69999   0.47269   -0.299687           
         N         N         0.31717   0.79960   0.01256   -0.299282           
         N         N         0.68646   0.20025   0.01527   -0.300909           
         C         C         0.24508   0.78871   0.94597   -0.169921           
         C         C         0.75717   0.21261   0.92518   -0.166346           
         C         C         0.24997   0.28438   0.58051   -0.166552           
         C         C         0.74325   0.71392   0.57098   -0.169326           
         C         C         0.25239   0.71303   0.58105   -0.166295           
         C         C         0.74421   0.28667   0.55947   -0.169009           
         C         C         0.24617   0.21137   0.95682   -0.169301           
         C         C         0.75558   0.78615   0.92802   -0.166345           
         H         H         0.39609   0.03374   0.54456   0.105591  
         H         H         0.59892   0.96581   0.55272   0.106092  
         H         H         0.10362   0.53591   0.97206   0.106632  
         H         H         0.90222   0.46538   0.93955   0.105638  
         H         H         0.10425   0.46748   0.96125   0.105798  
         H         H         0.90130   0.53389   0.94744   0.106324  
         H         H         0.39622   0.96515   0.54464   0.106245  
         H         H         0.59883   0.03445   0.54902   0.105630  
         H         H         0.44653   0.14692   0.62397   0.107554  
         H         H         0.55031   0.85392   0.64283   0.107534  
         H         H         0.05017   0.64892   0.90483   0.108215  
         H         H         0.95347   0.35305   0.86703   0.108526  
         H         H         0.05357   0.35408   0.87553   0.109699  
         H         H         0.95207   0.64592   0.87657   0.107798  
         H         H         0.44860   0.85329   0.63641   0.106773  
         H         H         0.54842   0.14565   0.63876   0.107283  
         H         H         0.38610   0.18734   0.59768   0.112793  
         H         H         0.61069   0.81353   0.61109   0.112097  
         H         H         0.10949   0.69051   0.93220   0.113312  
         H         H         0.89353   0.31166   0.89170   0.113803  
         H         H         0.11305   0.31271   0.90208   0.113715  
         H         H         0.89179   0.68708   0.89529   0.113034  
         H         H         0.39045   0.81010   0.60337   0.113138  
         H         H         0.60828   0.18689   0.61197   0.113421  
         H         H         0.33801   0.10635   0.77519   0.105490  
         H         H         0.66728   0.89438   0.78423   0.105599  
         H         H         0.16166   0.60840   0.74708   0.104152  
         H         H         0.83456   0.39175   0.72071   0.103764  
         H         H         0.16229   0.39343   0.71789   0.104797  
         H         H         0.83240   0.60717   0.72966   0.104604  
         H         H         0.33609   0.89591   0.77558   0.105253  
         H         H         0.66798   0.10355   0.78024   0.103988  
         H         H         0.39799   0.06605   0.80278   0.104364  
         H         H         0.60734   0.93476   0.81095   0.103959  
         H         H         0.10232   0.56717   0.71721   0.103377  
         H         H         0.89374   0.43322   0.69163   0.102503  
         H         H         0.10307   0.43446   0.69014   0.104833  
         H         H         0.89263   0.56679   0.70852   0.102599  
         H         H         0.39641   0.93590   0.80585   0.104032  
         H         H         0.60717   0.06411   0.80714   0.104164  
         H         H         0.30320   0.16569   0.82529   0.069419  
         H         H         0.70020   0.83452   0.82246   0.067269  
         H         H         0.19523   0.66869   0.69954   0.069635  
         H         H         0.80151   0.33227   0.67483   0.067083  
         H         H         0.19419   0.33247   0.67872   0.065856  
         H         H         0.79933   0.66700   0.68047   0.067854  
         H         H         0.30162   0.83540   0.81680   0.070127  
         H         H         0.70189   0.16436   0.81972   0.067663  
         H         H         0.81709   0.23028   0.85728   0.118193  
         H         H         0.18361   0.77267   0.89984   0.117625  
         H         H         0.68422   0.73295   0.64406   0.117049  
         H         H         0.30799   0.26461   0.66086   0.115813  
         H         H         0.68317   0.27119   0.62134   0.117717  
         H         H         0.31297   0.72899   0.64496   0.117439  
         H         H         0.81648   0.77007   0.86764   0.118602  
         H         H         0.18447   0.22691   0.90948   0.117918  
         H         H         0.24102   0.81736   0.90270   0.109977  
         H         H         0.76073   0.18468   0.87309   0.108135  
         H         H         0.25220   0.31072   0.64734   0.109315  
         H         H         0.73993   0.68673   0.63039   0.109313  
         H         H         0.25489   0.68514   0.63440   0.109417  
         H         H         0.74106   0.31533   0.60379   0.108574  
         H         H         0.24185   0.18202   0.92433   0.108952  
         H         H         0.75905   0.81461   0.88143   0.109219  
         C         C         0.50204   0.09822   0.97730   -0.182850           
         C         C         0.50115   0.90152   0.97436   -0.183208           
         C         C         0.99772   0.59911   0.54071   -0.183779           
         C         C         0.99856   0.40236   0.51367   -0.183116           
         C         C         0.50156   0.97970   0.00450   0.004347  
         C         C         0.50176   0.01996   0.00458   0.005232  
         C         C         0.99833   0.48077   0.49839   0.004685  
         C         C         0.99819   0.52100   0.50506   0.005012  
         H         H         0.99749   0.62917   0.56402   0.107080  
         H         H         0.99869   0.37212   0.53197   0.106573  
         H         H         0.50205   0.12833   0.95530   0.106616  
         H         H         0.50097   0.87149   0.95027   0.107290 

