
##########################################################################
#               Crystallographic Information Format file
#               Produced by PyCifRW module
#
#  This is a CIF file.  CIF has been adopted by the International
#  Union of Crystallography as the standard for data archiving and
#  transmission.
#
#  For information on this file format, follow the CIF links at
#  http://www.iucr.org
##########################################################################

data_image0

_cell_length_a                          27.0456
_cell_length_b                          26.9706
_cell_length_c                          8.53838
_cell_angle_alpha                       90.0437
_cell_angle_beta                        90.3297
_cell_angle_gamma                       90.5774
_symmetry_space_group_name_H-M          'P 1'
_space_group_name_Hall                  'P 1'
loop_
  _atom_site_type_symbol
  _atom_site_label
  _atom_site_fract_x
  _atom_site_fract_y
  _atom_site_fract_z
  _atom_site_charge
         C         C         0.51784   0.66627   0.74034   0.205124  
         C         C         0.97878   0.83253   0.24416   0.204505  
         C         C         0.33495   0.02082   -0.00312  0.205034  
         C         C         0.16508   0.48329   0.49438   0.205448  
         C         C         0.48043   0.83765   0.50799   0.203266  
         C         C         0.01589   0.66230   0.00756   0.206499  
         C         C         0.66290   0.48400   0.25663   0.206885  
         C         C         0.83573   0.01564   0.75837   0.203794  
         C         C         0.01889   0.16378   0.24459   0.203571  
         C         C         0.48360   0.33529   0.74551   0.206898  
         C         C         0.83519   0.51652   0.48985   0.205456  
         C         C         0.66592   0.98237   0.99125   0.205552  
         C         C         0.98389   0.33355   0.00705   0.205767  
         C         C         0.52351   0.16749   0.50711   0.206134  
         C         C         0.16370   0.98090   0.76095   0.205108  
         C         C         0.33478   0.51941   0.25870   0.204549  
         C         C         0.55945   0.67907   0.64919   -0.160268           
         C         C         0.93659   0.82178   0.15151   -0.157804           
         C         C         0.32119   0.06262   0.90792   -0.160337           
         C         C         0.17054   0.44201   0.39458   -0.153929           
         C         C         0.43808   0.82496   0.59574   -0.160537           
         C         C         0.05743   0.67214   0.10387   -0.160898           
         C         C         0.67554   0.44179   0.34529   -0.160660           
         C         C         0.82431   0.05798   0.84784   -0.157561           
         C         C         0.06106   0.17204   0.15120   -0.155307           
         C         C         0.44284   0.32952   0.64295   -0.154893           
         C         C         0.82306   0.55919   0.40261   -0.158443           
         C         C         0.67827   0.94010   0.90296   -0.159057           
         C         C         0.94282   0.32623   0.10589   -0.160061           
         C         C         0.56510   0.17417   0.60571   -0.156341           
         C         C         0.17699   0.93894   0.84989   -0.161490           
         C         C         0.32984   0.56102   0.35773   -0.155875           
         C         C         0.55412   0.70002   0.50198   -0.124336           
         C         C         0.94056   0.80185   0.00233   -0.127289           
         C         C         0.30071   0.05760   0.75944   -0.124199           
         C         C         0.18991   0.44692   0.24548   -0.128468           
         C         C         0.44198   0.80465   0.74446   -0.125915           
         C         C         0.05247   0.69262   0.25173   -0.124545           
         C         C         0.69697   0.44626   0.49241   -0.123636           
         C         C         0.80392   0.05402   0.99583   -0.126307           
         C         C         0.05735   0.19118   0.00106   -0.128875           
         C         C         0.44805   0.30960   0.49435   -0.130756           
         C         C         0.80179   0.55561   0.25491   -0.126664           
         C         C         0.69849   0.94426   0.75476   -0.127338           
         C         C         0.94807   0.30610   0.25402   -0.125914           
         C         C         0.56075   0.19205   0.75731   -0.128586           
         C         C         0.19835   0.94373   -0.00287  -0.124129           
         C         C         0.31043   0.55682   0.50709   -0.126427           
         C         C         0.50703   0.70850   0.43487   0.056836  
         C         C         0.98707   0.79203   0.93468   0.058366  
         C         C         0.29392   0.01058   0.68859   0.053757  
         C         C         0.20542   0.49341   0.18598   0.060064  
         C         C         0.48847   0.79680   0.81628   0.058711  
         C         C         0.00560   0.70405   0.31420   0.057516  
         C         C         0.70557   0.49315   0.56205   0.057922  
         C         C         0.79483   0.00737   0.06597   0.058259  
         C         C         0.01118   0.20326   0.93374   0.058954  
         C         C         0.49449   0.29412   0.43830   0.059166  
         C         C         0.79259   0.50908   0.18362   0.060116  
         C         C         0.70659   0.99098   0.68391   0.058522  
         C         C         0.99468   0.29206   0.31415   0.060073  
         C         C         0.51440   0.20504   0.82015   0.059252  
         C         C         0.20642   0.99069   0.06692   0.056292  
         C         C         0.29444   0.51066   0.56776   0.060704  
         C         C         0.46563   0.69506   0.52609   -0.112966           
         C         C         0.02909   0.80327   0.02772   -0.113284           
         C         C         0.30814   0.96897   0.77793   -0.113560           
         C         C         0.19978   0.53459   0.28664   -0.117467           
         C         C         0.53064   0.80994   0.72818   -0.112655           
         C         C         0.96415   0.69321   0.21812   -0.115621           
         C         C         0.69260   0.53522   0.47311   -0.115134           
         C         C         0.80698   0.96513   0.97665   -0.112574           
         C         C         0.96909   0.19481   0.02789   -0.115318           
         C         C         0.53526   0.30078   0.54069   -0.117481           
         C         C         0.80505   0.46658   0.27116   -0.115738           
         C         C         0.69325   0.03313   0.77174   -0.115384           
         C         C         0.03578   0.30050   0.21583   -0.118353           
         C         C         0.47297   0.19875   0.72010   -0.115805           
         C         C         0.19214   0.03246   0.97843   -0.113359           
         C         C         0.30015   0.46907   0.46875   -0.118247           
         C         C         0.47068   0.67445   0.67394   -0.177609           
         C         C         0.02532   0.82289   0.17714   -0.171723           
         C         C         0.32787   0.97370   0.92757   -0.176922           
         C         C         0.17997   0.52998   0.43528   -0.169777           
         C         C         0.52694   0.82958   0.57873   -0.176882           
         C         C         0.96891   0.67295   0.06977   -0.174255           
         C         C         0.67199   0.53100   0.32452   -0.178605           
         C         C         0.82663   0.96887   0.82740   -0.174675           
         C         C         0.97258   0.17572   0.17807   -0.170758           
         C         C         0.53029   0.32083   0.68915   -0.169850           
         C         C         0.82583   0.46993   0.41966   -0.176951           
         C         C         0.67367   0.02916   0.92099   -0.174884           
         C         C         0.03080   0.32069   0.06735   -0.171601           
         C         C         0.47710   0.18042   0.56924   -0.169540           
         C         C         0.17156   0.02793   0.82989   -0.177525           
         C         C         0.31986   0.47301   0.31981   -0.167890           
         N         N         0.52616   0.64310   0.88326   -0.308109           
         N         N         0.97113   0.85499   0.38882   -0.310518           
         N         N         0.35816   0.02948   0.14030   -0.308851           
         N         N         0.14244   0.47445   0.63774   -0.312491           
         N         N         0.47295   0.86053   0.36391   -0.307854           
         N         N         0.02452   0.63924   0.86491   -0.308275           
         N         N         0.63904   0.47593   0.11435   -0.307876           
         N         N         0.85840   0.02386   0.61477   -0.306990           
         N         N         0.02664   0.14132   0.38923   -0.310392           
         N         N         0.47424   0.35795   0.88876   -0.315566           
         N         N         0.85884   0.52390   0.63297   -0.305864           
         N         N         0.64347   0.97424   0.13516   -0.307574           
         N         N         0.97493   0.35648   0.86412   -0.309098           
         N         N         0.53217   0.14610   0.36099   -0.315808           
         N         N         0.14057   0.97247   0.61742   -0.305212           
         N         N         0.35731   0.52768   0.11480   -0.312604           
         C         C         0.45695   0.75094   0.22505   -0.127411           
         C         C         0.03698   0.75231   0.72158   -0.123030           
         C         C         0.25279   0.95988   0.47618   -0.124463           
         C         C         0.24263   0.54418   0.96705   -0.124799           
         C         C         0.53769   0.75474   0.02700   -0.127119           
         C         C         0.95528   0.74469   0.52603   -0.126549           
         C         C         0.75025   0.54171   0.77207   -0.129651           
         C         C         0.75364   0.95787   0.27937   -0.123736           
         C         C         0.96174   0.24082   0.71444   -0.122109           
         C         C         0.54631   0.26081   0.21760   -0.123136           
         C         C         0.74781   0.46104   0.97341   -0.124823           
         C         C         0.74798   0.04049   0.47103   -0.123404           
         C         C         0.04500   0.25311   0.53127   -0.124660           
         C         C         0.46306   0.23539   0.04530   -0.118079           
         C         C         0.24880   0.04096   0.27755   -0.126135           
         C         C         0.25672   0.46046   0.78637   -0.121637           
         C         C         0.50179   0.73048   0.27850   0.056685  
         C         C         0.99161   0.77046   0.77740   0.055736  
         C         C         0.27269   0.00533   0.53056   0.057260  
         C         C         0.22736   0.49812   0.02965   0.058619  
         C         C         0.49292   0.77520   0.97348   0.056088  
         C         C         0.00060   0.72620   0.47059   0.057668  
         C         C         0.72717   0.49759   0.71941   0.056858  
         C         C         0.77305   0.00312   0.22257   0.057010  
         C         C         0.00730   0.22484   0.77641   0.058851  
         C         C         0.49977   0.27117   0.28327   0.061800  
         C         C         0.77094   0.50510   0.02612   0.055110  
         C         C         0.72840   0.99528   0.52743   0.057492  
         C         C         -0.00056  0.26955   0.47001   0.058383  
         C         C         0.50960   0.22616   0.97789   0.060371  
         C         C         0.22853   0.99567   0.22375   0.056372  
         C         C         0.27222   0.50643   0.72392   0.056361  
         C         C         0.54183   0.73276   0.17339   -0.132916           
         C         C         0.95105   0.76616   0.67329   -0.133549           
         C         C         0.27045   0.04554   0.42495   -0.135220           
         C         C         0.23509   0.45651   0.93292   -0.132781           
         C         C         0.45277   0.77283   0.07829   -0.133136           
         C         C         0.04120   0.73077   0.57451   -0.131619           
         C         C         0.72632   0.45756   0.82568   -0.135793           
         C         C         0.76985   0.04414   0.32464   -0.132863           
         C         C         0.04870   0.23145   0.67837   -0.133825           
         C         C         0.45833   0.25737   0.19149   -0.133230           
         C         C         0.77184   0.54517   0.91980   -0.133238           
         C         C         0.73184   0.95418   0.42583   -0.132735           
         C         C         0.95802   0.26245   0.56757   -0.133706           
         C         C         0.55105   0.23911   0.07093   -0.135420           
         C         C         0.23115   0.95532   0.32874   -0.135069           
         C         C         0.26452   0.54810   0.82067   -0.131138           
         C         C         0.49264   0.64389   0.99140   0.088890  
         C         C         0.00617   0.85704   0.49319   0.084667  
         C         C         0.35894   0.99527   0.24684   0.087551  
         C         C         0.14111   0.50863   0.74480   0.082884  
         C         C         0.50838   0.86270   0.26219   0.085343  
         C         C         0.99117   0.63911   0.75504   0.082919  
         C         C         0.63974   0.50960   0.00594   0.085737  
         C         C         0.86009   0.98910   0.51003   0.084238  
         C         C         0.99153   0.13873   0.49205   0.083537  
         C         C         0.50770   0.35987   -0.00184  0.083384  
         C         C         0.85833   0.48981   0.73992   0.084005  
         C         C         0.64176   0.00928   0.23879   0.086464  
         C         C         0.00776   0.35603   0.75390   0.082516  
         C         C         0.49604   0.13931   0.26246   0.086256  
         C         C         0.14075   0.00641   0.50984   0.083978  
         C         C         0.35812   0.49354   0.00754   0.082228  
         C         C         0.49668   0.61406   0.13189   0.042695  
         C         C         0.00178   0.88620   0.63508   0.045990  
         C         C         0.38924   -0.00032  0.38678   0.045272  
         C         C         0.11168   0.50283   0.88488   0.044877  
         C         C         0.50469   0.89206   0.12078   0.046703  
         C         C         0.99622   0.60923   0.61523   0.046808  
         C         C         0.60908   0.50513   0.86690   0.045166  
         C         C         0.88922   0.99425   0.36901   0.048209  
         C         C         0.99617   0.10938   0.63328   0.045393  
         C         C         0.50149   0.38962   0.13781   0.045533  
         C         C         0.88825   0.49431   0.88069   0.046234  
         C         C         0.61244   0.00456   0.37941   0.047837  
         C         C         0.00259   0.38593   0.61407   0.047926  
         C         C         0.50090   0.11115   0.11911   0.046437  
         C         C         0.11101   0.00169   0.36874   0.046986  
         C         C         0.38706   0.49915   0.86621   0.047952  
         C         C         0.45658   0.61023   0.23484   -0.111103           
         C         C         0.04312   0.89292   0.73332   -0.112484           
         C         C         0.39657   0.95763   0.48043   -0.109033           
         C         C         0.10742   0.54263   0.98990   -0.112408           
         C         C         0.54638   0.89851   0.02544   -0.110137           
         C         C         0.95646   0.60479   0.50976   -0.113578           
         C         C         0.60589   0.54506   0.76237   -0.112858           
         C         C         0.89498   0.95315   0.27025   -0.113554           
         C         C         0.95543   0.10359   0.73305   -0.111526           
         C         C         0.54092   0.39438   0.24455   -0.112189           
         C         C         0.89300   0.45374   0.98215   -0.115189           
         C         C         0.60497   0.04662   0.47270   -0.112448           
         C         C         0.04224   0.38997   0.50937   -0.114041           
         C         C         0.45831   0.10205   0.02820   -0.112885           
         C         C         0.10649   0.04220   0.26686   -0.114998           
         C         C         0.39021   0.45955   0.75995   -0.112033           
         C         C         0.45740   0.57684   0.35949   -0.138828           
         C         C         0.04215   0.92644   0.85768   -0.137321           
         C         C         0.43086   0.95839   0.60277   -0.138839           
         C         C         0.07391   0.54065   0.11344   -0.137815           
         C         C         0.54547   0.93105   0.89862   -0.136277           
         C         C         0.95795   0.57116   0.38576   -0.135406           
         C         C         0.57202   0.54411   0.63858   -0.136677           
         C         C         0.92789   0.95479   0.14529   -0.137454           
         C         C         0.95674   0.07030   0.85792   -0.137645           
         C         C         0.53925   0.42846   0.36713   -0.138662           
         C         C         0.92661   0.45519   0.10669   -0.138204           
         C         C         0.57199   0.04523   0.59717   -0.135943           
         C         C         0.04102   0.42352   0.38524   -0.138177           
         C         C         0.45930   0.06975   0.90129   -0.136301           
         C         C         0.07288   0.04099   0.14235   -0.136057           
         C         C         0.42284   0.46138   0.63408   -0.141221           
         C         C         0.49850   0.54695   0.38520   0.081231  
         C         C         -0.00052  0.95360   0.88819   0.083209  
         C         C         0.45800   0.00152   0.63602   0.081736  
         C         C         0.04433   0.49849   0.13626   0.082351  
         C         C         0.50262   0.95745   0.86300   0.082639  
         C         C         -0.00025  0.54208   0.36217   0.080838  
         C         C         0.54143   0.50276   0.61462   0.081976  
         C         C         0.95535   0.99783   0.11443   0.080475  
         C         C         -0.00095  0.04225   0.88669   0.080810  
         C         C         0.49768   0.45813   0.38726   0.083456  
         C         C         0.95577   0.49743   0.13362   0.083471  
         C         C         0.54623   0.00157   0.63326   0.081870  
         C         C         -0.00034  0.45325   0.36116   0.080710  
         C         C         0.50301   0.04555   0.86195   0.081845  
         C         C         0.04377   0.99872   0.11479   0.082173  
         C         C         0.45304   0.50304   0.61082   0.084325  
         C         C         0.53975   0.55248   0.28595   -0.130466           
         C         C         0.95710   0.94488   0.79459   -0.132300           
         C         C         0.44882   0.04460   0.54720   -0.130272           
         C         C         0.05045   0.45753   0.03531   -0.132070           
         C         C         0.46013   0.94940   0.95515   -0.132651           
         C         C         0.04072   0.54829   0.46400   -0.129494           
         C         C         0.54601   0.46175   0.71630   -0.130214           
         C         C         0.94783   0.03996   0.20930   -0.129357           
         C         C         0.04068   0.04959   0.79034   -0.130082           
         C         C         0.45711   0.45184   0.28400   -0.132001           
         C         C         0.94938   0.53901   0.03560   -0.130526           
         C         C         0.55501   0.95878   0.54294   -0.131842           
         C         C         0.95866   0.44730   0.46145   -0.129310           
         C         C         0.54625   0.05619   0.94895   -0.132713           
         C         C         0.05026   0.95701   0.21227   -0.131718           
         C         C         0.44826   0.54376   0.71346   -0.133284           
         C         C         0.53898   0.58533   0.16176   -0.097043           
         C         C         0.95801   0.91176   0.67082   -0.097949           
         C         C         0.41507   0.04379   0.42477   -0.098388           
         C         C         0.08342   0.45946   0.91214   -0.096386           
         C         C         0.46099   0.91740   0.08165   -0.098999           
         C         C         0.03906   0.58112   0.58833   -0.098623           
         C         C         0.57903   0.46285   0.84047   -0.098525           
         C         C         0.91539   0.03836   0.33415   -0.099854           
         C         C         0.03951   0.08259   0.66645   -0.098945           
         C         C         0.45875   0.41822   0.16173   -0.097846           
         C         C         0.91613   0.53772   0.91196   -0.096686           
         C         C         0.58754   0.96010   0.41830   -0.098166           
         C         C         0.96001   0.41447   0.58565   -0.101019           
         C         C         0.54553   0.08878   0.07441   -0.097969           
         C         C         0.08303   0.95836   0.33712   -0.096053           
         C         C         0.41596   0.54208   0.83839   -0.099254           
         H         H         0.59601   0.67250   0.69848   0.112131  
         H         H         0.90051   0.82962   0.20106   0.109884  
         H         H         0.32672   0.09908   0.96030   0.110503  
         H         H         0.15864   0.40600   0.43872   0.110737  
         H         H         0.40208   0.83134   0.54222   0.111000  
         H         H         0.09368   0.66283   0.05837   0.111959  
         H         H         0.66847   0.40555   0.29333   0.110942  
         H         H         0.83181   0.09412   0.79614   0.110063  
         H         H         0.09688   0.16275   0.20118   0.110683  
         H         H         0.40695   0.34156   0.68465   0.111965  
         H         H         0.83047   0.59516   0.45610   0.109905  
         H         H         0.67159   0.90398   0.95576   0.111421  
         H         H         0.90669   0.33742   0.06256   0.112646  
         H         H         0.60102   0.16417   0.55907   0.111494  
         H         H         0.17031   0.90261   0.79804   0.111273  
         H         H         0.34206   0.59684   0.31302   0.110925  
         H         H         0.58714   0.71049   0.43754   0.099589  
         H         H         0.90684   0.79360   0.93705   0.099188  
         H         H         0.28930   0.09072   0.69700   0.100081  
         H         H         0.19262   0.41394   0.17321   0.100425  
         H         H         0.40837   0.79428   0.80620   0.100041  
         H         H         0.08571   0.69987   0.32041   0.100156  
         H         H         0.70793   0.41292   0.55457   0.099824  
         H         H         0.79444   0.08778   0.05797   0.099600  
         H         H         0.09105   0.19679   0.93447   0.100305  
         H         H         0.41548   0.30657   0.41970   0.101509  
         H         H         0.79159   0.58939   0.19371   0.100082  
         H         H         0.70878   0.91064   0.69322   0.100041  
         H         H         0.91520   0.30178   0.32528   0.099648  
         H         H         0.59401   0.19564   0.82866   0.101001  
         H         H         0.20947   0.91041   0.05907   0.099888  
         H         H         0.30789   0.59006   0.57850   0.099946  
         H         H         0.42866   0.69952   0.47798   0.099974  
         H         H         0.06579   0.79736   0.98067   0.099253  
         H         H         0.30484   0.93213   0.72703   0.100952  
         H         H         0.21129   0.57128   0.24812   0.098972  
         H         H         0.56718   0.80566   0.77952   0.100454  
         H         H         0.92718   0.69978   0.26217   0.100524  
         H         H         0.69742   0.57196   0.52379   0.100477  
         H         H         0.80190   0.92845   0.02703   0.099362  
         H         H         0.93252   0.20288   0.98195   0.099524  
         H         H         0.57182   0.28946   0.50376   0.098700  
         H         H         0.79957   0.43015   0.21908   0.099841  
         H         H         0.69732   0.06977   0.72023   0.100916  
         H         H         0.07267   0.29171   0.25762   0.099335  
         H         H         0.43654   0.20926   0.76038   0.100717  
         H         H         0.19608   0.06925   0.02925   0.099780  
         H         H         0.28889   0.43254   0.50935   0.099131  
         H         H         0.43785   0.66273   0.73758   0.111720  
         H         H         0.05896   0.83213   0.24167   0.110229  
         H         H         0.33950   0.94065   0.99022   0.112301  
         H         H         0.17545   0.56308   0.50638   0.110115  
         H         H         0.56054   0.84036   0.51758   0.111160  
         H         H         0.93580   0.66380   0.00241   0.111287  
         H         H         0.66086   0.56430   0.26221   0.111602  
         H         H         0.83649   0.93517   0.76529   0.110310  
         H         H         0.93885   0.16917   0.24400   0.110289  
         H         H         0.56304   0.32551   0.76239   0.110091  
         H         H         0.83660   0.43620   0.48008   0.111172  
         H         H         0.66280   0.06266   0.98222   0.111052  
         H         H         0.06379   0.32798   -0.00155  0.111797  
         H         H         0.44374   0.17622   0.49863   0.109624  
         H         H         0.15969   0.06109   0.76832   0.111745  
         H         H         0.32422   0.43960   0.25007   0.111091  
         H         H         0.42525   0.75173   0.30270   0.101658  
         H         H         0.06949   0.75327   0.79695   0.102841  
         H         H         0.25215   0.92795   0.55382   0.102286  
         H         H         0.23793   0.57787   0.03498   0.102314  
         H         H         0.56931   0.75372   0.94923   0.103089  
         H         H         0.92281   0.74375   0.45053   0.102098  
         H         H         0.75378   0.57291   0.69230   0.102209  
         H         H         0.75364   0.92522   0.20481   0.102097  
         H         H         0.92831   0.23723   0.78356   0.102634  
         H         H         0.57982   0.27029   0.28228   0.101564  
         H         H         0.74449   0.42968   0.05262   0.101546  
         H         H         0.74765   0.07318   0.54549   0.102493  
         H         H         0.07837   0.25638   0.46157   0.102193  
         H         H         0.42955   0.22498   0.98211   0.102176  
         H         H         0.24984   0.07269   0.19918   0.101380  
         H         H         0.26119   0.42675   0.71848   0.102345  
         H         H         0.57663   0.71544   0.20451   0.105615  
         H         H         0.91536   0.78087   0.70681   0.103353  
         H         H         0.28729   0.08090   0.45697   0.104833  
         H         H         0.22425   0.41979   0.97289   0.102636  
         H         H         0.41780   0.78967   0.04606   0.104336  
         H         H         0.07696   0.71612   0.54153   0.103121  
         H         H         0.70687   0.42352   0.79392   0.105994  
         H         H         0.78604   0.07953   0.29045   0.104234  
         H         H         0.08483   0.21908   0.71752   0.103447  
         H         H         0.42124   0.26328   0.23558   0.101726  
         H         H         0.79142   0.57918   0.95129   0.104858  
         H         H         0.71578   0.91874   0.46027   0.103592  
         H         H         0.92173   0.27434   0.52874   0.103107  
         H         H         0.58811   0.23290   0.02707   0.101393  
         H         H         0.21446   0.91991   0.29633   0.105241  
         H         H         0.27576   0.58478   0.78114   0.101717  
         H         H         0.45892   0.66611   0.97991   0.057180  
         H         H         0.04168   0.83817   0.47758   0.057521  
         H         H         0.33805   0.96028   0.23412   0.057726  
         H         H         0.16057   0.54440   0.73305   0.055422  
         H         H         0.54359   0.84338   0.27969   0.057203  
         H         H         0.95688   0.66044   0.76401   0.057265  
         H         H         0.66243   0.54359   0.01573   0.059309  
         H         H         0.84071   0.95332   0.52394   0.056976  
         H         H         0.95572   0.15695   0.47539   0.056032  
         H         H         0.54340   0.34105   0.98847   0.055209  
         H         H         0.83616   0.45561   0.72767   0.059108  
         H         H         0.66112   0.04500   0.22348   0.056977  
         H         H         0.04184   0.33435   0.76302   0.056269  
         H         H         0.45846   0.15240   0.28541   0.053623  
         H         H         0.16246   0.04092   0.52209   0.058619  
         H         H         0.33842   0.45796   0.01985   0.056131  
         H         H         0.42355   0.63189   0.21209   0.095125  
         H         H         0.07711   0.87332   0.70736   0.096651  
         H         H         0.37717   0.92325   0.45147   0.095922  
         H         H         0.12914   0.57624   0.96982   0.095517  
         H         H         0.58055   0.87969   0.05588   0.095800  
         H         H         0.92318   0.62621   0.52961   0.095869  
         H         H         0.62850   0.57807   0.78307   0.095976  
         H         H         0.87528   0.91879   0.29654   0.095729  
         H         H         0.92168   0.12394   0.70851   0.094866  
         H         H         0.57414   0.37269   0.22632   0.094932  
         H         H         0.87182   0.41997   0.95865   0.096162  
         H         H         0.62313   0.08143   0.44188   0.094745  
         H         H         0.07534   0.36830   0.53054   0.095767  
         H         H         0.42344   0.11853   0.06258   0.094541  
         H         H         0.12801   0.07578   0.28993   0.096164  
         H         H         0.36848   0.42601   0.78064   0.095349  
         H         H         0.42505   0.57271   0.43327   0.098285  
         H         H         0.07539   0.93268   0.92737   0.102846  
         H         H         0.43776   0.92469   0.66875   0.103265  
         H         H         0.06964   0.57289   0.18828   0.100927  
         H         H         0.57885   0.93710   0.83073   0.101871  
         H         H         0.92573   0.56650   0.31035   0.101084  
         H         H         0.56824   0.57640   0.56370   0.100653  
         H         H         0.93357   0.92169   0.07541   0.101344  
         H         H         0.92395   0.06484   0.92901   0.101459  
         H         H         0.57127   0.43314   0.44330   0.103934  
         H         H         0.93145   0.42263   0.17971   0.098622  
         H         H         0.56485   0.07883   0.66311   0.097829  
         H         H         0.07320   0.42771   0.31067   0.100305  
         H         H         0.42536   0.06166   0.83709   0.103561  
         H         H         0.06823   0.07374   0.06992   0.100079  
         H         H         0.42620   0.42940   0.55763   0.100604  
         H         H         0.57148   0.52865   0.30304   0.106478  
         H         H         0.92388   0.96607   0.81684   0.103731  
         H         H         0.46983   0.07833   0.57221   0.106117  
         H         H         0.02710   0.42489   0.05078   0.106650  
         H         H         0.42687   0.97024   0.92944   0.103652  
         H         H         0.07312   0.52529   0.44819   0.107674  
         H         H         0.52160   0.42983   0.70060   0.109023  
         H         H         0.96945   0.07344   0.18760   0.105228  
         H         H         0.07328   0.02714   0.81004   0.104267  
         H         H         0.42515   0.47564   0.29673   0.107118  
         H         H         0.97251   0.57169   0.05431   0.105710  
         H         H         0.53439   0.92492   0.56803   0.103315  
         H         H         0.92656   0.47072   0.44464   0.105434  
         H         H         0.58006   0.03678   0.92036   0.101327  
         H         H         0.02745   0.92414   0.19255   0.105515  
         H         H         0.47250   0.57579   0.69864   0.105889  
         H         H         0.56968   0.58815   0.08054   0.098893  
         H         H         0.92603   0.90625   0.59478   0.098070  
         H         H         0.40933   0.07629   0.35192   0.096693  
         H         H         0.08649   0.42889   0.82971   0.100189  
         H         H         0.42907   0.91267   0.15736   0.100088  
         H         H         0.06942   0.58450   0.67179   0.100295  
         H         H         0.58110   0.43248   0.92397   0.100307  
         H         H         0.91116   0.07000   0.41179   0.098834  
         H         H         0.07074   0.08681   0.58776   0.099888  
         H         H         0.42866   0.41497   0.07710   0.099822  
         H         H         0.91227   0.56891   0.83231   0.098506  
         H         H         0.59304   0.92790   0.34383   0.097438  
         H         H         0.92952   0.41180   0.66770   0.100564  
         H         H         0.57840   0.09574   0.14536   0.099279  
         H         H         0.08634   0.92719   0.41703   0.098017  
         H         H         0.41413   0.57239   0.92217   0.099540  
         C         C         0.49756   0.50285   0.49921   0.001285  
         C         C         -0.00060  0.99818   0.00094   0.002970  
         C         C         0.50267   0.00140   0.74805   0.001442  
         C         C         -0.00010  0.49777   0.24830   0.002022 

