
##########################################################################
#               Crystallographic Information Format file
#               Produced by PyCifRW module
#
#  This is a CIF file.  CIF has been adopted by the International
#  Union of Crystallography as the standard for data archiving and
#  transmission.
#
#  For information on this file format, follow the CIF links at
#  http://www.iucr.org
##########################################################################

data_image0

_cell_length_a                          15.7622
_cell_length_b                          15.8399
_cell_length_c                          13.2703
_cell_angle_alpha                       89.8811
_cell_angle_beta                        89.919
_cell_angle_gamma                       90.3519
_symmetry_space_group_name_H-M          'P 1'
_space_group_name_Hall                  'P 1'
loop_
  _atom_site_type_symbol
  _atom_site_label
  _atom_site_fract_x
  _atom_site_fract_y
  _atom_site_fract_z
  _atom_site_charge
         C         C         0.40697   0.72817   0.57178   -0.141042           
         C         C         0.04588   0.84026   0.10551   -0.134506           
         C         C         0.26273   0.93787   0.82775   -0.124056           
         C         C         0.17609   0.52364   0.36818   -0.143092           
         C         C         0.56290   0.77497   0.65301   -0.127095           
         C         C         0.94114   0.70397   0.15675   -0.125657           
         C         C         0.69429   0.56859   0.39845   -0.138954           
         C         C         0.79943   0.92761   0.91284   -0.128790           
         C         C         0.93983   0.17261   0.12829   -0.119456           
         C         C         0.58688   0.31265   0.58701   -0.146451           
         C         C         0.83484   0.47175   0.34723   -0.128590           
         C         C         0.66051   0.01902   0.84346   -0.125263           
         C         C         0.03233   0.31629   0.18259   -0.133406           
         C         C         0.50433   0.15866   0.62137   -0.135140           
         C         C         0.21201   0.09649   0.89421   -0.132411           
         C         C         0.32399   0.43242   0.40676   -0.147894           
         C         C         0.47889   0.73378   0.50785   0.208388  
         C         C         0.00149   0.79633   0.02751   0.216998  
         C         C         0.26331   0.00676   0.75834   0.212727  
         C         C         0.22890   0.49913   0.28752   0.193991  
         C         C         0.49148   0.76783   0.71732   0.202714  
         C         C         0.98847   0.74568   0.23364   0.210490  
         C         C         0.74234   0.52973   0.47548   0.208248  
         C         C         0.75248   0.97750   0.98269   0.210684  
         C         C         0.98710   0.21705   0.05283   0.208947  
         C         C         0.56132   0.26212   0.50483   0.206888  
         C         C         0.78627   0.50979   0.27005   0.194364  
         C         C         0.70903   0.97052   0.77304   0.223065  
         C         C         0.98282   0.27289   0.25753   0.231338  
         C         C         0.52587   0.21096   0.70371   0.190048  
         C         C         0.21344   0.02799   0.96454   0.227654  
         C         C         0.27276   0.45946   0.48753   0.205576  
         N         N         0.46600   0.70948   0.40846   -0.290671           
         N         N         0.01730   0.82258   0.93122   -0.301059           
         N         N         0.29249   0.98934   0.66343   -0.277989           
         N         N         0.20495   0.52517   0.19153   -0.277367           
         N         N         0.50542   0.78601   0.81835   -0.277096           
         N         N         0.98158   0.71205   0.32844   -0.272601           
         N         N         0.71374   0.54338   0.57340   -0.289099           
         N         N         0.78367   0.97686   0.07842   -0.279191           
         N         N         0.98124   0.18374   0.95885   -0.261281           
         N         N         0.57394   0.29591   0.40895   -0.275330           
         N         N         0.81521   0.49683   0.17239   -0.280307           
         N         N         0.68402   0.97262   0.67458   -0.285575           
         N         N         0.98452   0.30484   0.35269   -0.298511           
         N         N         0.50146   0.18032   0.79749   -0.277351           
         N         N         0.19345   0.04641   0.06207   -0.299953           
         N         N         0.30398   0.44423   0.58417   -0.283386           
         C         C         0.55745   0.75831   0.55068   -0.153104           
         C         C         0.94743   0.72787   0.05719   -0.175950           
         C         C         0.23607   0.08683   0.79515   -0.159500           
         C         C         0.30303   0.45279   0.30827   -0.171847           
         C         C         0.41249   0.74570   0.67369   -0.169154           
         C         C         0.03969   0.81644   0.20504   -0.161410           
         C         C         0.81356   0.48111   0.44804   -0.165252           
         C         C         0.68118   0.02286   0.94430   -0.159661           
         C         C         0.03430   0.28996   0.08384   -0.157023           
         C         C         0.52214   0.18332   0.52329   -0.179630           
         C         C         0.71487   0.55817   0.29789   -0.165338           
         C         C         0.77883   0.92348   0.81256   -0.171575           
         C         C         0.93744   0.19905   0.22656   -0.170063           
         C         C         0.56825   0.28823   0.68497   -0.158953           
         C         C         0.23738   0.94713   0.92634   -0.170018           
         C         C         0.19695   0.50318   0.46678   -0.173564           
         C         C         0.52049   0.72481   0.33707   0.067253  
         C         C         0.96869   0.79670   0.85492   0.048850  
         C         C         0.28907   0.04447   0.58917   0.037458  
         C         C         0.22312   0.48147   0.11216   0.056811  
         C         C         0.44917   0.77141   0.88807   0.053758  
         C         C         0.03640   0.73040   0.40005   0.035298  
         C         C         0.72996   0.49054   0.64560   0.067731  
         C         C         0.74972   0.01728   0.15537   0.024555  
         C         C         0.02030   0.21288   0.87772   0.022174  
         C         C         0.51540   0.28575   0.34165   0.064555  
         C         C         0.78780   0.53940   0.09507   0.047424  
         C         C         0.72952   0.93220   0.60491   0.047205  
         C         C         0.92849   0.27786   0.42140   0.057802  
         C         C         0.53045   0.20724   0.88297   0.058406  
         C         C         0.21144   0.99096   0.13453   0.051324  
         C         C         0.29467   0.50146   0.65261   0.071629  
         C         C         0.51049   0.68430   0.23943   0.056210  
         C         C         0.98435   0.82215   0.75553   0.074127  
         C         C         0.32902   0.02805   0.49438   0.102046  
         C         C         0.19430   0.51049   0.01390   0.054710  
         C         C         0.46160   0.80351   0.98927   0.065686  
         C         C         0.02997   0.69101   0.49691   0.101901  
         C         C         0.69136   0.50210   0.74429   0.055481  
         C         C         0.79308   0.01962   0.24952   0.107142  
         C         C         0.00678   0.17071   0.78431   0.108748  
         C         C         0.52154   0.32688   0.24395   0.050129  
         C         C         0.82967   0.52953   -0.00151  0.068064  
         C         C         0.70403   0.92406   0.50433   0.087357  
         C         C         0.93159   0.30484   0.52162   0.076382  
         C         C         0.50138   0.16461   0.97427   0.056749  
         C         C         0.18813   0.00081   0.23562   0.076695  
         C         C         0.33527   0.49388   0.75044   0.054993  
         C         C         0.57443   0.69058   0.16580   -0.112432           
         C         C         0.92986   0.80587   0.67051   -0.233745           
         C         C         0.32942   0.09195   0.41872   -0.125695           
         C         C         0.18987   0.45514   0.93155   -0.127005           
         C         C         0.39712   0.79691   0.06274   -0.133567           
         C         C         0.09781   0.69901   0.56704   -0.121942           
         C         C         0.69591   0.43801   0.81735   -0.114049           
         C         C         0.76049   0.06943   0.33006   -0.126337           
         C         C         0.04817   0.19754   0.69421   -0.129243           
         C         C         0.45227   0.32555   0.17759   -0.111066           
         C         C         0.81585   0.58597   0.91789   -0.128353           
         C         C         0.74791   0.87242   0.43101   -0.214586           
         C         C         0.87076   0.28283   0.59970   -0.219068           
         C         C         0.53959   0.17751   0.06881   -0.128086           
         C         C         0.20381   0.93798   0.31249   -0.224848           
         C         C         0.33403   0.56217   0.81756   -0.114152           
         C         C         0.57356   0.63794   0.08132   -0.154441           
         C         C         0.96299   0.84927   0.58867   -0.098970           
         C         C         0.36926   0.07937   0.32814   -0.112211           
         C         C         0.14233   0.47650   0.84650   -0.144818           
         C         C         0.39882   0.84735   0.14878   -0.117334           
         C         C         0.09573   0.65684   0.65741   -0.116190           
         C         C         0.64529   0.44084   0.90374   -0.155020           
         C         C         0.80462   0.07969   0.41784   -0.095949           
         C         C         0.02813   0.16273   0.60274   -0.099460           
         C         C         0.45219   0.37639   0.09155   -0.155863           
         C         C         0.87223   0.59060   0.83712   -0.128277           
         C         C         0.70161   0.87395   0.34308   -0.112430           
         C         C         0.89329   0.32612   0.68554   -0.117842           
         C         C         0.51905   0.12536   0.15080   -0.151495           
         C         C         0.16858   0.96622   0.40123   -0.120908           
         C         C         0.38564   0.56266   0.90273   -0.153840           
         C         C         0.50842   0.57877   0.06752   0.073593  
         C         C         0.41126   0.00113   0.30625   0.052293  
         C         C         0.09885   0.55354   0.84309   0.066235  
         C         C         0.46414   0.90772   0.16124   0.057801  
         C         C         0.02375   0.60598   0.68598   0.052343  
         C         C         0.59000   0.50841   0.92019   0.069041  
         C         C         0.88910   0.04364   0.42953   0.056179  
         C         C         0.96701   0.09360   0.59706   0.068464  
         C         C         0.52148   0.42906   0.06983   0.071917  
         C         C         0.94608   0.54004   0.83577   0.067212  
         C         C         0.46186   0.05785   0.13824   0.066741  
         C         C         0.43964   0.49500   0.92255   0.071481  
         C         C         0.43952   0.57987   0.13553   -0.136004           
         C         C         0.03983   0.89353   0.62094   -0.132453           
         C         C         0.41142   0.93746   0.38369   -0.096759           
         C         C         0.11419   0.61369   0.91919   -0.130917           
         C         C         0.53523   0.90324   0.09564   -0.122082           
         C         C         0.95563   0.59853   0.61455   -0.102059           
         C         C         0.59218   0.57665   0.85166   -0.132799           
         C         C         0.92020   0.99027   0.34851   -0.095117           
         C         C         0.93536   0.05854   0.69147   -0.078700           
         C         C         0.59360   0.42452   0.13212   -0.133584           
         C         C         0.95154   0.47508   0.90980   -0.118532           
         C         C         0.62668   0.92628   0.35931   -0.133974           
         C         C         0.96841   0.37718   0.66316   -0.129267           
         C         C         0.42063   0.04854   0.04440   -0.115107           
         C         C         0.12974   0.04826   0.38214   -0.125317           
         C         C         0.43456   0.42315   0.86035   -0.134054           
         C         C         0.44034   0.63080   0.22000   -0.091367           
         C         C         0.05308   0.87735   0.72108   -0.174025           
         C         C         0.37346   0.95117   0.47502   -0.111065           
         C         C         0.16128   0.59261   0.00342   -0.097191           
         C         C         0.53479   0.85182   0.01212   -0.095466           
         C         C         0.95966   0.63766   0.52261   -0.113170           
         C         C         0.64128   0.57357   0.76517   -0.091269           
         C         C         0.87421   0.97970   0.26267   -0.114682           
         C         C         0.95224   0.09771   0.78023   -0.121757           
         C         C         0.59404   0.37468   0.21785   -0.095057           
         C         C         0.89482   0.46918   0.98832   -0.098606           
         C         C         0.62772   0.95634   0.45623   -0.189429           
         C         C         0.99197   0.36441   0.56480   -0.192324           
         C         C         0.43796   0.10178   0.96502   -0.096991           
         C         C         0.14117   0.06924   0.28246   -0.184974           
         C         C         0.38350   0.42219   0.77558   -0.098405           
         H         H         0.34703   0.70940   0.53763   0.114542  
         H         H         0.08423   0.89452   0.08323   0.114455  
         H         H         0.28244   0.87679   0.79883   0.109640  
         H         H         0.11857   0.55845   0.35085   0.121043  
         H         H         0.62284   0.79400   0.68686   0.116348  
         H         H         0.90251   0.64992   0.17922   0.116796  
         H         H         0.63925   0.60520   0.42097   0.115221  
         H         H         0.85346   0.89357   0.94306   0.113055  
         H         H         0.90616   0.11595   0.10433   0.117424  
         H         H         0.61759   0.37290   0.57094   0.119766  
         H         H         0.89024   0.43545   0.32529   0.116871  
         H         H         0.60643   0.05362   0.81398   0.120281  
         H         H         0.06744   0.37204   0.20685   0.121002  
         H         H         0.47327   0.09857   0.63747   0.120676  
         H         H         0.19315   0.15759   0.92371   0.112923  
         H         H         0.38246   0.39929   0.42426   0.117949  
         H         H         0.61412   0.76332   0.50399   0.113607  
         H         H         0.91359   0.69166   0.00042   0.099423  
         H         H         0.23620   0.14138   0.74527   0.112431  
         H         H         0.34584   0.43590   0.24736   0.097504  
         H         H         0.35566   0.74251   0.72010   0.103894  
         H         H         0.07425   0.85244   0.26174   0.104937  
         H         H         0.85291   0.45175   0.50548   0.111498  
         H         H         0.64268   0.06125   0.99437   0.101080  
         H         H         0.07187   0.32531   0.02904   0.102970  
         H         H         0.50512   0.14267   0.46039   0.107329  
         H         H         0.67492   0.58676   0.24075   0.097818  
         H         H         0.81745   0.88463   0.76325   0.100425  
         H         H         0.90195   0.16235   0.28156   0.098753  
         H         H         0.58465   0.33001   0.74693   0.100902  
         H         H         0.23528   0.89210   0.97536   0.108147  
         H         H         0.15528   0.52165   0.52829   0.108849  
         H         H         0.57745   0.76431   0.34768   0.070318  
         H         H         0.91212   0.75743   0.86807   0.063997  
         H         H         0.25693   0.10554   0.59596   0.071792  
         H         H         0.25383   0.41932   0.11608   0.069620  
         H         H         0.38826   0.73974   0.87319   0.064112  
         H         H         0.09123   0.77230   0.38759   0.073874  
         H         H         0.76673   0.43242   0.63451   0.069527  
         H         H         0.68998   0.05251   0.15038   0.066975  
         H         H         0.06296   0.26805   0.87789   0.066425  
         H         H         0.45599   0.25155   0.35827   0.065894  
         H         H         0.73899   0.58843   0.10032   0.064366  
         H         H         0.78974   0.90155   0.62370   0.061117  
         H         H         0.87607   0.23542   0.40086   0.066303  
         H         H         0.57960   0.25646   0.89056   0.069540  
         H         H         0.24735   0.93347   0.11754   0.052953  
         H         H         0.26220   0.56138   0.63695   0.063320  
         H         H         0.62746   0.73391   0.17720   0.107407  
         H         H         0.87406   0.76547   0.67108   0.114662  
         H         H         0.29584   0.15058   0.43297   0.115601  
         H         H         0.22020   0.39361   0.93613   0.107186  
         H         H         0.34227   0.75639   0.04894   0.112476  
         H         H         0.15155   0.73947   0.54778   0.113903  
         H         H         0.73646   0.38375   0.80382   0.107145  
         H         H         0.69863   0.09869   0.32136   0.115343  
         H         H         0.09306   0.24989   0.69770   0.111451  
         H         H         0.39702   0.28658   0.19539   0.110049  
         H         H         0.76333   0.63023   0.92161   0.107245  
         H         H         0.80647   0.83876   0.44456   0.120014  
         H         H         0.81797   0.23939   0.59064   0.117761  
         H         H         0.58746   0.22686   0.07756   0.106263  
         H         H         0.23781   0.87946   0.30145   0.107955  
         H         H         0.29345   0.61594   0.80151   0.093433  
         H         H         0.62568   0.64120   0.02774   0.102048  
         H         H         0.93623   0.85226   0.51356   0.097024  
         H         H         0.36715   0.12760   0.26980   0.105529  
         H         H         0.13429   0.43113   0.78569   0.111252  
         H         H         0.34532   0.84702   0.20062   0.111669  
         H         H         0.14804   0.66297   0.71029   0.100998  
         H         H         0.64658   0.38835   0.95662   0.102244  
         H         H         0.77888   0.11673   0.47947   0.119732  
         H         H         0.05795   0.18554   0.53407   0.115566  
         H         H         0.39661   0.37756   0.04319   0.102042  
         H         H         0.86407   0.63891   0.77967   0.108968  
         H         H         0.71726   0.84181   0.27341   0.107862  
         H         H         0.86217   0.32305   0.75840   0.103151  
         H         H         0.55018   0.13446   0.22317   0.106885  
         H         H         0.16967   0.93341   0.47291   0.101167  
         H         H         0.38631   0.61706   0.95234   0.094979  
         H         H         0.38675   0.53646   0.12403   0.100127  
         H         H         0.07769   0.93461   0.57340   0.100503  
         H         H         0.44477   0.87873   0.36975   0.102109  
         H         H         0.08395   0.67506   0.91397   0.111022  
         H         H         0.58820   0.94625   0.10785   0.101547  
         H         H         0.90224   0.55755   0.63306   0.103993  
         H         H         0.55062   0.63030   0.86341   0.105213  
         H         H         0.98292   0.96284   0.35644   0.113993  
         H         H         0.89459   0.00311   0.68808   0.109887  
         H         H         0.64814   0.46437   0.11531   0.100829  
         H         H         0.00465   0.43182   0.90751   0.095881  
         H         H         0.57891   0.93884   0.30284   0.082644  
         H         H         -0.00052  0.41876   0.71623   0.081565  
         H         H         0.37573   0.99698   0.03450   0.101861  
         H         H         0.09763   0.08572   0.43855   0.089361  
         H         H         0.47503   0.36943   0.87639   0.096290  
         H         H         0.38951   0.62744   0.27545   0.112011  
         H         H         0.10258   0.90193   0.76954   0.109484  
         H         H         0.37617   0.90400   0.53465   0.109376  
         H         H         0.16814   0.63637   0.06604   0.113799  
         H         H         0.58650   0.85360   0.95777   0.111999  
         H         H         0.90980   0.62888   0.46697   0.112651  
         H         H         0.63822   0.62382   0.70929   0.105790  
         H         H         0.89872   0.94210   0.20068   0.113279  
         H         H         0.92492   0.07486   0.85050   0.120408  
         H         H         0.64804   0.37505   0.26882   0.115351  
         H         H         0.90297   0.42252   0.04773   0.109458  
         H         H         0.58183   0.99657   0.49295   0.118428  
         H         H         0.04438   0.39273   0.52374   0.116714  
         H         H         0.40665   0.09366   0.89280   0.106554  
         H         H         0.11962   0.12531   0.24349   0.117257  
         H         H         0.38351   0.36864   0.72434   0.113672  
         C         C         0.02189   0.56465   0.77916   -0.001047           
         C         C         0.44815   0.98854   0.21175   0.001171  
         C         C         0.51523   0.50303   0.99509   0.006769  
         C         C         0.93546   0.06460   0.51011   0.001615 

