
##########################################################################
#               Crystallographic Information Format file
#               Produced by PyCifRW module
#
#  This is a CIF file.  CIF has been adopted by the International
#  Union of Crystallography as the standard for data archiving and
#  transmission.
#
#  For information on this file format, follow the CIF links at
#  http://www.iucr.org
##########################################################################

data_image0

_cell_length_a                          23.7554
_cell_length_b                          23.7556
_cell_length_c                          8.64227
_cell_angle_alpha                       89.9576
_cell_angle_beta                        90.0525
_cell_angle_gamma                       90.7067
_symmetry_space_group_name_H-M          'P 1'
_space_group_name_Hall                  'P 1'
loop_
  _atom_site_type_symbol
  _atom_site_label
  _atom_site_fract_x
  _atom_site_fract_y
  _atom_site_fract_z
  _atom_site_charge
         C         C         0.81363   0.98062   0.74709   0.204784  
         C         C         0.69043   0.52039   0.25550   0.210981  
         C         C         0.02168   0.31501   0.00048   0.204098  
         C         C         0.48184   0.18253   0.49423   0.201852  
         C         C         0.19090   0.51711   0.49813   0.201628  
         C         C         0.31282   0.97906   -0.00148  0.203089  
         C         C         0.98744   0.18981   0.24718   0.207433  
         C         C         0.51968   0.31308   0.74924   0.203243  
         C         C         0.31157   0.47867   0.25572   0.204990  
         C         C         0.18609   0.01822   0.74657   0.206621  
         C         C         0.51957   0.81163   0.50258   0.204843  
         C         C         0.98190   0.69262   0.00773   0.208241  
         C         C         0.68414   0.01722   0.00019   0.204742  
         C         C         0.81214   0.48298   0.50015   0.204639  
         C         C         0.47903   0.68420   0.75277   0.202519  
         C         C         0.01034   0.81611   0.24797   0.210845  
         C         C         0.79808   0.03414   0.69197   -0.171760           
         C         C         0.69732   0.46616   0.19199   -0.175268           
         C         C         0.96800   0.30727   0.93312   -0.170846           
         C         C         0.53438   0.20595   0.45094   -0.167674           
         C         C         0.20549   0.46334   0.55375   -0.166684           
         C         C         0.29308   0.03211   0.04566   -0.167018           
         C         C         0.04113   0.20662   0.30120   -0.169032           
         C         C         0.46564   0.29938   0.80662   -0.173237           
         C         C         0.30335   0.53302   0.19436   -0.170322           
         C         C         0.20024   0.96400   0.69364   -0.173620           
         C         C         0.46536   0.79501   0.45187   -0.169413           
         C         C         0.03503   0.70089   0.93787   -0.171336           
         C         C         0.70651   0.96476   0.04357   -0.167666           
         C         C         0.79745   0.53671   0.55552   -0.168128           
         C         C         0.53264   0.70200   0.80499   -0.168840           
         C         C         0.95682   0.80227   0.30887   -0.171757           
         C         C         0.77349   0.04048   0.54743   -0.117659           
         C         C         0.72209   0.45917   0.04784   -0.114680           
         C         C         0.96199   0.28469   0.78600   -0.117765           
         C         C         0.54131   0.23237   0.30876   -0.119172           
         C         C         0.22791   0.45642   0.70075   -0.117547           
         C         C         0.26777   0.03879   0.18896   -0.118025           
         C         C         0.04759   0.23264   0.44397   -0.117225           
         C         C         0.45886   0.27504   0.95145   -0.115103           
         C         C         0.27907   0.54034   0.04967   -0.115968           
         C         C         0.22470   0.95652   0.54938   -0.112527           
         C         C         0.45752   0.76933   0.30899   -0.116421           
         C         C         0.03991   0.72315   0.78994   -0.117090           
         C         C         0.73213   0.95770   0.18671   -0.119737           
         C         C         0.77480   0.54360   0.70215   -0.119401           
         C         C         0.53948   0.72625   0.94983   -0.117116           
         C         C         0.95133   0.77685   0.45297   -0.114754           
         C         C         0.76371   0.99441   0.44710   0.055822  
         C         C         0.74186   0.50527   0.95923   0.052581  
         C         C         0.00863   0.26785   0.69696   0.056346  
         C         C         0.49738   0.23523   0.19889   0.054634  
         C         C         0.23625   0.50206   0.80353   0.057229  
         C         C         0.26195   0.99402   0.29581   0.054618  
         C         C         0.00152   0.24198   0.54354   0.055085  
         C         C         0.50511   0.26291   0.04816   0.052748  
         C         C         0.26111   0.49432   0.95795   0.052487  
         C         C         0.23570   0.00203   0.44797   0.054650  
         C         C         0.50269   0.75964   0.20640   0.052887  
         C         C         0.99255   0.73878   0.70146   0.058109  
         C         C         0.73577   0.00164   0.29667   0.054026  
         C         C         0.76656   0.49784   0.80473   0.058004  
         C         C         0.49421   0.73310   0.05401   0.056407  
         C         C         0.99834   0.76429   0.54672   0.055238  
         C         C         0.78147   0.94123   0.50074   -0.132665           
         C         C         0.73551   0.55924   0.02529   -0.125465           
         C         C         0.06225   0.27644   0.76448   -0.131601           
         C         C         0.44558   0.20959   0.24066   -0.132946           
         C         C         0.22054   0.55562   0.74815   -0.131255           
         C         C         0.28301   0.94134   0.24876   -0.134571           
         C         C         0.94805   0.22403   0.48971   -0.128307           
         C         C         0.55902   0.27783   0.99103   -0.132748           
         C         C         0.26932   0.44009   0.02117   -0.125949           
         C         C         0.22045   0.05601   0.50106   -0.132890           
         C         C         0.55672   0.77752   0.25733   -0.129827           
         C         C         0.93944   0.72937   0.77128   -0.129542           
         C         C         0.71096   0.05326   0.25464   -0.131463           
         C         C         0.78220   0.44428   0.74959   -0.134171           
         C         C         0.44080   0.71391   0.00184   -0.135221           
         C         C         0.05169   0.77872   0.48488   -0.125106           
         C         C         0.80570   0.93453   0.64552   -0.163218           
         C         C         0.70953   0.56677   0.16725   -0.166651           
         C         C         0.06869   0.29981   0.91065   -0.161460           
         C         C         0.43796   0.18440   0.38387   -0.160722           
         C         C         0.19909   0.56297   0.60012   -0.160052           
         C         C         0.30783   0.93421   0.10524   -0.161256           
         C         C         0.94122   0.19888   0.34610   -0.160700           
         C         C         0.56612   0.30259   0.84691   -0.162771           
         C         C         0.29449   0.43232   0.16429   -0.163293           
         C         C         0.19640   0.06384   0.64520   -0.162307           
         C         C         0.56493   0.80312   0.39979   -0.163054           
         C         C         0.93420   0.70665   0.91875   -0.162804           
         C         C         0.68612   0.06082   0.11124   -0.165006           
         C         C         0.80381   0.43711   0.60182   -0.159671           
         C         C         0.43346   0.69043   0.85607   -0.161623           
         C         C         0.05749   0.80434   0.34140   -0.161420           
         N         N         0.84032   0.97088   0.88745   -0.307004           
         N         N         0.66248   0.53164   0.39327   -0.305739           
         N         N         0.03199   0.34027   0.14319   -0.307868           
         N         N         0.47086   0.15368   0.63142   -0.304526           
         N         N         0.16548   0.52862   0.35595   -0.313826           
         N         N         0.34068   0.96805   0.86069   -0.308336           
         N         N         0.97652   0.16152   0.10914   -0.308373           
         N         N         0.52999   0.33998   0.60931   -0.307480           
         N         N         0.33944   0.46777   0.39381   -0.304670           
         N         N         0.15874   0.02987   0.88475   -0.309871           
         N         N         0.53073   0.83950   0.64072   -0.305168           
         N         N         0.97266   0.66801   0.15190   -0.309899           
         N         N         0.65609   0.02827   0.86249   -0.306511           
         N         N         0.83728   0.47133   0.35764   -0.313339           
         N         N         0.46816   0.65701   0.61302   -0.309104           
         N         N         0.02077   0.84331   0.10793   -0.308964           
         C         C         0.83521   0.00594   0.00183   0.084339  
         C         C         0.66350   0.49521   0.50482   0.083768  
         C         C         0.99222   0.34314   0.24547   0.086726  
         C         C         0.50273   0.16085   0.75209   0.078042  
         C         C         0.16126   0.48975   0.25101   0.084322  
         C         C         0.33575   0.00137   0.74248   0.080457  
         C         C         0.01213   0.16379   0.99557   0.081422  
         C         C         0.49421   0.33573   0.49614   0.084224  
         C         C         0.33808   0.50417   0.50537   0.082529  
         C         C         0.16168   0.99524   0.00062   0.083169  
         C         C         0.49710   0.83342   0.75819   0.080131  
         C         C         0.01278   0.66534   0.25342   0.085106  
         C         C         0.66371   0.99709   0.74110   0.079584  
         C         C         0.84272   0.51086   0.25484   0.084760  
         C         C         0.50432   0.66030   0.50084   0.083886  
         C         C         0.98401   0.84234   -0.00311  0.084758  
         C         C         0.87047   0.00192   0.13836   0.042239  
         C         C         0.62865   0.50030   0.64160   0.047653  
         C         C         0.99756   0.37683   0.38455   0.047060  
         C         C         0.49717   0.12539   0.88810   0.048379  
         C         C         0.12809   0.49658   0.11173   0.048369  
         C         C         0.37110   0.99556   0.60713   0.046381  
         C         C         0.00488   0.12934   0.85861   0.047764  
         C         C         0.49938   0.37082   0.35962   0.046144  
         C         C         0.37364   0.49923   0.64083   0.045801  
         C         C         0.12676   0.00144   0.13670   0.046296  
         C         C         0.50207   0.86907   0.89370   0.045198  
         C         C         0.00718   0.63161   0.39266   0.047692  
         C         C         0.62796   0.00213   0.60612   0.045364  
         C         C         0.87562   0.50475   0.11490   0.047487  
         C         C         0.49955   0.62562   0.36350   0.046023  
         C         C         0.99160   0.87594   0.85798   0.046224  
         C         C         0.90810   0.95685   0.15605   -0.098655           
         C         C         0.59507   0.54784   0.66890   -0.096640           
         C         C         0.04797   0.40538   0.42346   -0.096666           
         C         C         0.45336   0.08497   0.90204   -0.099551           
         C         C         0.10142   0.54751   0.07426   -0.098879           
         C         C         0.41045   0.95172   0.59443   -0.098642           
         C         C         0.95762   0.09339   0.84028   -0.097386           
         C         C         0.54630   0.40696   0.33831   -0.100539           
         C         C         0.40870   0.45238   0.66293   -0.097099           
         C         C         0.09032   0.04749   0.15447   -0.099583           
         C         C         0.54626   0.90902   0.90838   -0.096500           
         C         C         0.95637   0.60340   0.42956   -0.097113           
         C         C         0.58815   0.04554   0.59278   -0.098711           
         C         C         0.90224   0.45429   0.07300   -0.097074           
         C         C         0.45267   0.58984   0.33714   -0.099505           
         C         C         0.04002   0.91019   0.83755   -0.094129           
         C         C         0.94621   0.95677   0.27673   -0.128011           
         C         C         0.55766   0.54805   0.79161   -0.129722           
         C         C         0.04950   0.44286   0.54608   -0.127688           
         C         C         0.45286   0.04742   0.02438   -0.129199           
         C         C         0.06379   0.54965   0.95195   -0.132276           
         C         C         0.44840   0.95141   0.47330   -0.131553           
         C         C         0.95486   0.05632   0.71709   -0.129763           
         C         C         0.54747   0.44458   0.21629   -0.130721           
         C         C         0.44652   0.45162   0.78466   -0.130934           
         C         C         0.05291   0.04870   0.27682   -0.129039           
         C         C         0.54619   0.94708   0.02923   -0.131196           
         C         C         0.95420   0.56516   0.55052   -0.129287           
         C         C         0.55009   0.04524   0.47161   -0.129682           
         C         C         0.93946   0.45357   0.94950   -0.134816           
         C         C         0.45272   0.55256   0.21434   -0.129866           
         C         C         0.04342   0.94737   0.71456   -0.132584           
         C         C         0.94874   0.00153   0.38412   0.083056  
         C         C         0.55182   0.50098   0.89052   0.080674  
         C         C         0.00083   0.45321   0.63465   0.082272  
         C         C         0.49621   0.04797   0.13650   0.081529  
         C         C         0.05167   0.50151   0.86184   0.081218  
         C         C         0.44860   0.99446   0.36028   0.082873  
         C         C         -0.00093  0.05322   0.60827   0.080284  
         C         C         0.50181   0.44832   0.11230   0.081825  
         C         C         0.45111   0.49742   0.88809   0.082792  
         C         C         0.04980   0.00410   0.38490   0.080298  
         C         C         0.50224   0.94705   0.13925   0.083109  
         C         C         0.00257   0.55371   0.63943   0.080278  
         C         C         0.54970   0.00157   0.36051   0.081025  
         C         C         0.95117   0.50255   0.86220   0.080303  
         C         C         0.49933   0.54910   0.11371   0.080100  
         C         C         -0.00114  0.95199   0.60724   0.081775  
         C         C         0.91018   0.04516   0.37033   -0.139354           
         C         C         0.58632   0.45458   0.86610   -0.140409           
         C         C         0.95128   0.42358   0.59916   -0.138847           
         C         C         0.53851   0.08911   0.12575   -0.140551           
         C         C         0.08015   0.45174   0.89455   -0.138971           
         C         C         0.40811   0.03642   0.36903   -0.142933           
         C         C         0.04483   0.09041   0.62312   -0.140257           
         C         C         0.45600   0.41144   0.13080   -0.139317           
         C         C         0.41521   0.54298   0.86878   -0.143558           
         C         C         0.08740   0.95968   0.37083   -0.139539           
         C         C         0.45985   0.90599   0.12876   -0.144241           
         C         C         0.05249   0.58322   0.60639   -0.139574           
         C         C         0.59044   0.95984   0.37052   -0.140705           
         C         C         0.92283   0.55200   0.89978   -0.136297           
         C         C         0.54505   0.58567   0.13688   -0.137893           
         C         C         0.95218   0.91602   0.62296   -0.140467           
         C         C         0.87105   0.04512   0.24930   -0.112076           
         C         C         0.62460   0.45454   0.74381   -0.113836           
         C         C         0.94979   0.38557   0.47652   -0.114489           
         C         C         0.53866   0.12775   0.00392   -0.115075           
         C         C         0.11807   0.44945   0.01725   -0.109787           
         C         C         0.36972   0.03685   0.49107   -0.114034           
         C         C         0.04743   0.12834   0.74616   -0.114175           
         C         C         0.45520   0.37253   0.25196   -0.112180           
         C         C         0.37666   0.54374   0.74715   -0.110182           
         C         C         0.12579   0.95865   0.24872   -0.114563           
         C         C         0.45991   0.86722   0.00741   -0.112608           
         C         C         0.05467   0.62198   0.48536   -0.113604           
         C         C         0.62960   0.96050   0.49107   -0.114181           
         C         C         0.88553   0.55288   0.02393   -0.111491           
         C         C         0.54484   0.62385   0.25945   -0.110994           
         C         C         0.94860   0.87846   0.74680   -0.115393           
         H         H         0.80627   0.07114   0.76286   0.115081  
         H         H         0.68093   0.42948   0.25352   0.113603  
         H         H         0.93062   0.32059   0.99497   0.112675  
         H         H         0.57001   0.20348   0.52952   0.114512  
         H         H         0.19945   0.42636   0.48114   0.112072  
         H         H         0.29793   0.06842   0.96995   0.113994  
         H         H         0.07813   0.19846   0.23119   0.112089  
         H         H         0.42866   0.30959   0.73843   0.114867  
         H         H         0.31838   0.56955   0.25885   0.113005  
         H         H         0.19076   0.92734   0.76487   0.115511  
         H         H         0.42905   0.80364   0.52430   0.113616  
         H         H         0.07284   0.68838   -0.00069  0.112399  
         H         H         0.70377   0.92933   0.96424   0.114573  
         H         H         0.80359   0.57370   0.48312   0.111652  
         H         H         0.56942   0.69652   0.73180   0.113978  
         H         H         0.91920   0.81269   0.24355   0.111770  
         H         H         0.76257   0.08266   0.51023   0.104074  
         H         H         0.72444   0.41685   0.00086   0.102606  
         H         H         0.91992   0.28131   0.73732   0.103896  
         H         H         0.58203   0.25136   0.28216   0.103684  
         H         H         0.23933   0.41423   0.73670   0.103931  
         H         H         0.25240   0.08022   0.21915   0.103217  
         H         H         0.08961   0.24595   0.47941   0.102488  
         H         H         0.41641   0.26655   0.99273   0.104475  
         H         H         0.27553   0.58296   0.00521   0.102837  
         H         H         0.23439   0.91395   0.51295   0.103335  
         H         H         0.41485   0.75763   0.27519   0.103663  
         H         H         0.08183   0.72779   0.74118   0.102822  
         H         H         0.74970   0.91683   0.21386   0.104132  
         H         H         0.76295   0.58574   0.73750   0.104528  
         H         H         0.58157   0.73988   0.98317   0.103624  
         H         H         0.90910   0.76675   0.49359   0.100935  
         H         H         0.77579   0.90427   0.42803   0.102982  
         H         H         0.75135   0.59603   0.96381   0.101233  
         H         H         0.09971   0.26396   0.70181   0.100188  
         H         H         0.41121   0.20790   0.15759   0.104607  
         H         H         0.22443   0.59212   0.82341   0.101702  
         H         H         0.28097   0.90557   0.32705   0.104223  
         H         H         0.91127   0.22872   0.56313   0.103587  
         H         H         0.59619   0.26920   0.06010   0.102953  
         H         H         0.25559   0.40315   0.95668   0.100813  
         H         H         0.22763   0.09269   0.42817   0.102758  
         H         H         0.59323   0.77165   0.18361   0.102624  
         H         H         0.90139   0.74068   0.70928   0.099312  
         H         H         0.70987   0.08770   0.33723   0.104519  
         H         H         0.77813   0.40773   0.82472   0.103865  
         H         H         0.40423   0.71701   0.07675   0.103125  
         H         H         0.08954   0.77020   0.55115   0.101416  
         H         H         0.81880   0.89319   0.68479   0.113889  
         H         H         0.70402   0.60873   0.21487   0.114460  
         H         H         0.11038   0.30645   0.96021   0.112904  
         H         H         0.39793   0.16479   0.41465   0.115392  
         H         H         0.18746   0.60461   0.55926   0.113305  
         H         H         0.32481   0.89381   0.07078   0.115971  
         H         H         0.89981   0.18522   0.30636   0.114566  
         H         H         0.60789   0.31392   0.80473   0.115308  
         H         H         0.30114   0.39022   0.20996   0.114433  
         H         H         0.18484   0.10559   0.68466   0.114352  
         H         H         0.60673   0.81724   0.43557   0.116274  
         H         H         0.89286   0.69960   0.96990   0.112364  
         H         H         0.66684   0.10057   0.08059   0.116485  
         H         H         0.81574   0.39564   0.56095   0.113442  
         H         H         0.39220   0.67580   0.81704   0.114887  
         H         H         0.09886   0.81585   0.29667   0.114567  
         H         H         0.80554   0.04109   -0.00143  0.060447  
         H         H         0.69017   0.45774   0.49965   0.058456  
         H         H         0.95134   0.32174   0.22947   0.057869  
         H         H         0.53637   0.19294   0.75571   0.057538  
         H         H         0.18046   0.44818   0.26410   0.054364  
         H         H         0.30615   0.03656   0.74115   0.057110  
         H         H         0.04994   0.19083   -0.00176  0.056947  
         H         H         0.45748   0.30706   0.49982   0.061190  
         H         H         0.31086   0.54126   0.50098   0.059074  
         H         H         0.18941   0.95853   -0.00094  0.059813  
         H         H         0.46231   0.80244   0.75867   0.058920  
         H         H         0.05388   0.68632   0.23692   0.057939  
         H         H         0.69584   0.96426   0.73647   0.057631  
         H         H         0.82500   0.55295   0.27090   0.054159  
         H         H         0.54175   0.68793   0.50652   0.056509  
         H         H         0.94512   0.81700   0.00384   0.056324  
         H         H         0.90793   0.92386   0.06892   0.099028  
         H         H         0.59764   0.58292   0.58811   0.102270  
         H         H         0.08485   0.39858   0.35190   0.100263  
         H         H         0.42155   0.08254   0.81163   0.102706  
         H         H         0.10958   0.58405   0.14700   0.100969  
         H         H         0.41210   0.92030   0.68584   0.103080  
         H         H         0.92498   0.09393   0.92844   0.103510  
         H         H         0.58001   0.40604   0.42347   0.101588  
         H         H         0.40659   0.41834   0.57891   0.102266  
         H         H         0.09051   0.08019   0.06630   0.101591  
         H         H         0.57854   0.91071   0.81918   0.103823  
         H         H         0.91985   0.61078   0.35669   0.100699  
         H         H         0.58677   0.07755   0.68267   0.103589  
         H         H         0.89500   0.41699   0.14371   0.100660  
         H         H         0.41787   0.59071   0.41869   0.101176  
         H         H         0.07300   0.90841   0.92472   0.101715  
         H         H         0.97662   0.92309   0.28514   0.107168  
         H         H         0.53051   0.58402   0.80854   0.106032  
         H         H         0.08828   0.46596   0.57106   0.105263  
         H         H         0.42023   0.01498   0.03033   0.107871  
         H         H         0.04188   0.58858   0.92756   0.102688  
         H         H         0.48053   0.91920   0.46941   0.108859  
         H         H         0.91947   0.02705   0.70801   0.106086  
         H         H         0.58283   0.47371   0.20392   0.106466  
         H         H         0.47497   0.41643   0.79712   0.105030  
         H         H         0.02330   0.08309   0.28569   0.107471  
         H         H         0.57877   0.97957   0.03554   0.107472  
         H         H         0.91534   0.54183   0.57311   0.105065  
         H         H         0.51807   0.07750   0.46612   0.106550  
         H         H         0.96175   0.41515   0.92211   0.102296  
         H         H         0.41745   0.52356   0.19840   0.105518  
         H         H         0.07956   0.97566   0.70469   0.107553  
         H         H         0.91167   0.08015   0.45127   0.102257  
         H         H         0.58199   0.41750   0.93898   0.101390  
         H         H         0.91317   0.43149   0.66465   0.099445  
         H         H         0.57252   0.08993   0.20979   0.101202  
         H         H         0.07141   0.41412   0.82687   0.102656  
         H         H         0.40769   0.06995   0.28355   0.100833  
         H         H         0.07955   0.08864   0.54166   0.101425  
         H         H         0.41997   0.41405   0.05376   0.105246  
         H         H         0.41862   0.57889   0.94590   0.099806  
         H         H         0.08554   0.92472   0.45174   0.103324  
         H         H         0.42568   0.90542   0.21220   0.102439  
         H         H         0.09050   0.57423   0.67153   0.098824  
         H         H         0.59094   0.92582   0.28668   0.103584  
         H         H         0.93129   0.59057   0.83579   0.102180  
         H         H         0.58175   0.58322   0.06242   0.104725  
         H         H         0.91737   0.91890   0.54195   0.098888  
         H         H         0.84211   0.08005   0.23688   0.098890  
         H         H         0.64994   0.41752   0.72176   0.096932  
         H         H         0.91042   0.36421   0.44737   0.096492  
         H         H         0.57256   0.15880   0.99479   0.095933  
         H         H         0.13826   0.40984   0.04503   0.094932  
         H         H         0.33977   0.07090   0.50103   0.096605  
         H         H         0.08384   0.15618   0.75941   0.095166  
         H         H         0.41896   0.34463   0.26752   0.099791  
         H         H         0.35007   0.58021   0.73033   0.096354  
         H         H         0.15391   0.92316   0.23578   0.098398  
         H         H         0.42569   0.83659   -0.00348  0.096951  
         H         H         0.09435   0.64308   0.45746   0.096044  
         H         H         0.66037   0.92714   0.50063   0.096826  
         H         H         0.86577   0.59222   0.05661   0.095395  
         H         H         0.58132   0.65104   0.27917   0.099380  
         H         H         0.91087   0.85251   0.76147   0.093878  
         C         C         -0.00081  0.00281   0.49609   0.001152  
         C         C         0.50111   0.49898   0.00123   0.002420  
         C         C         0.00144   0.50270   0.74943   0.004565  
         C         C         0.49910   0.99779   0.24921   0.000579 

