
##########################################################################
#               Crystallographic Information Format file
#               Produced by PyCifRW module
#
#  This is a CIF file.  CIF has been adopted by the International
#  Union of Crystallography as the standard for data archiving and
#  transmission.
#
#  For information on this file format, follow the CIF links at
#  http://www.iucr.org
##########################################################################

data_image0

_cell_length_a                          19.5511
_cell_length_b                          19.5541
_cell_length_c                          8.95106
_cell_angle_alpha                       90.0529
_cell_angle_beta                        89.8963
_cell_angle_gamma                       91.062
_symmetry_space_group_name_H-M          'P 1'
_space_group_name_Hall                  'P 1'
loop_
  _atom_site_type_symbol
  _atom_site_label
  _atom_site_fract_x
  _atom_site_fract_y
  _atom_site_fract_z
  _atom_site_charge
         C         C         0.50137   0.24573   0.37460   0.012288  
         C         C         0.49900   0.74483   0.62665   0.011016  
         C         C         0.00012   0.75254   0.87427   0.012689  
         C         C         0.00032   0.25223   0.12374   0.012241  
         C         C         0.50891   0.30544   0.26391   0.064403  
         C         C         0.49168   0.68389   0.73428   0.064162  
         C         C         0.99473   0.69159   0.76603   0.063288  
         C         C         0.00772   0.31283   0.23269   0.062620  
         C         C         0.43850   0.75186   0.51830   0.063940  
         C         C         0.56154   0.24006   0.48384   0.064616  
         C         C         0.06089   0.24611   0.01482   0.065206  
         C         C         0.93943   0.75710   0.98327   0.065498  
         C         C         0.00571   0.81309   0.76523   0.063832  
         C         C         0.99291   0.19138   0.23198   0.064296  
         C         C         0.49346   0.18418   0.26866   0.063794  
         C         C         0.50588   0.80505   0.73671   0.065284  
         C         C         0.93978   0.25851   0.01536   0.065251  
         C         C         0.06092   0.74780   0.98227   0.063629  
         C         C         0.55990   0.73906   0.51864   0.065204  
         C         C         0.44072   0.25384   0.48209   0.063584  
         C         C         0.52290   0.39254   0.01281   0.200425  
         C         C         0.47604   0.59839   0.98800   0.201941  
         C         C         0.98174   0.60373   0.51553   0.200142  
         C         C         0.02293   0.39904   0.48588   0.202135  
         C         C         0.35172   0.76770   0.26762   0.199964  
         C         C         0.64739   0.22807   0.73682   0.201754  
         C         C         0.14702   0.23277   0.76173   0.200752  
         C         C         0.85232   0.76922   0.23533   0.199355  
         C         C         0.01956   0.89882   0.51150   0.201640  
         C         C         0.97782   0.10420   0.48317   0.200397  
         C         C         0.47680   0.09781   0.01668   0.199826  
         C         C         0.52006   0.89200   0.98864   0.202343  
         C         C         0.85244   0.27246   0.76511   0.201140  
         C         C         0.14666   0.73444   0.23513   0.204347  
         C         C         0.64750   0.72618   0.26771   0.200562  
         C         C         0.35425   0.27142   0.73259   0.200979  
         C         C         0.57824   0.38141   0.10943   -0.168601           
         C         C         0.42106   0.60958   0.89029   -0.170554           
         C         C         0.92718   0.61216   0.61613   -0.166505           
         C         C         0.07832   0.38683   0.38952   -0.165524           
         C         C         0.36318   0.82162   0.36928   -0.164058           
         C         C         0.63400   0.17182   0.64246   -0.166617           
         C         C         0.13385   0.17710   0.85774   -0.167815           
         C         C         0.86225   0.82388   0.13506   -0.164153           
         C         C         0.07440   0.88982   0.61064   -0.169331           
         C         C         0.92321   0.11453   0.38415   -0.165671           
         C         C         0.42190   0.11022   0.11431   -0.166346           
         C         C         0.57534   0.88093   0.89124   -0.169365           
         C         C         0.86504   0.32746   0.86324   -0.167231           
         C         C         0.13698   0.68012   0.13375   -0.165933           
         C         C         0.63606   0.67122   0.36663   -0.164184           
         C         C         0.36819   0.32569   0.63341   -0.168261           
         H         H         0.62740   0.40527   0.08207   0.100393  
         H         H         0.37147   0.58663   0.91774   0.101073  
         H         H         0.87884   0.58596   0.59209   0.100720  
         H         H         0.12810   0.40898   0.41798   0.101305  
         H         H         0.34000   0.87066   0.34608   0.101371  
         H         H         0.65533   0.12269   0.67230   0.101344  
         H         H         0.15528   0.12785   0.82859   0.100088  
         H         H         0.83777   0.87211   0.15976   0.101069  
         H         H         0.12325   0.91466   0.58456   0.100787  
         H         H         0.87407   0.09024   0.40993   0.101482  
         H         H         0.37193   0.08821   0.08690   0.102396  
         H         H         0.62461   0.90466   0.91812   0.099564  
         H         H         0.84247   0.37648   0.83718   0.100075  
         H         H         0.16099   0.63165   0.15819   0.100188  
         H         H         0.65934   0.62246   0.34087   0.101468  
         H         H         0.34728   0.37559   0.65873   0.100846  
         C         C         0.57136   0.33859   0.23340   -0.139920           
         C         C         0.42879   0.65160   0.76514   -0.139549           
         C         C         0.93356   0.65546   0.73958   -0.141570           
         C         C         0.07081   0.34441   0.26487   -0.137996           
         C         C         0.40601   0.81390   0.49258   -0.139379           
         C         C         0.59184   0.17772   0.51768   -0.136970           
         C         C         0.09159   0.18370   0.98256   -0.139871           
         C         C         0.90502   0.81792   0.01080   -0.142257           
         C         C         0.06750   0.84780   0.73594   -0.139933           
         C         C         0.93059   0.15745   0.26034   -0.139310           
         C         C         0.43014   0.15260   0.23871   -0.140074           
         C         C         0.56830   0.83826   0.76691   -0.140170           
         C         C         0.90798   0.32061   0.98648   -0.140013           
         C         C         0.09490   0.68672   0.00902   -0.140554           
         C         C         0.59301   0.67754   0.49040   -0.141747           
         C         C         0.41086   0.31706   0.51003   -0.136820           
         H         H         0.61578   0.32877   0.30248   0.098526  
         H         H         0.38467   0.66194   0.69548   0.098373  
         H         H         0.88958   0.66348   0.81149   0.099070  
         H         H         0.11535   0.33323   0.19684   0.098640  
         H         H         0.41631   0.85753   0.56500   0.099671  
         H         H         0.57980   0.13262   0.45094   0.098127  
         H         H         0.08010   0.13906   0.05107   0.098549  
         H         H         0.91415   0.86207   0.93931   0.100366  
         H         H         0.11152   0.83954   0.80719   0.097943  
         H         H         0.88657   0.16648   0.18954   0.099178  
         H         H         0.38604   0.16378   0.30817   0.099710  
         H         H         0.61264   0.82814   0.69743   0.097861  
         H         H         0.91928   0.36498   0.05597   0.098144  
         H         H         0.08599   0.64290   0.93634   0.099360  
         H         H         0.58286   0.63321   0.56084   0.099365  
         H         H         0.42343   0.36076   0.43946   0.099249  
         C         C         0.45923   0.36092   0.04709   -0.159062           
         C         C         0.54028   0.62861   0.95250   -0.157623           
         C         C         0.04450   0.63784   0.54664   -0.159155           
         C         C         0.95856   0.36960   0.44916   -0.159955           
         C         C         0.38230   0.70422   0.29752   -0.159204           
         C         C         0.61918   0.29171   0.69837   -0.157046           
         C         C         0.11839   0.29648   0.79846   -0.157573           
         C         C         0.88505   0.70697   0.20373   -0.158386           
         C         C         0.95634   0.86605   0.54509   -0.158023           
         C         C         0.04155   0.13608   0.45036   -0.159875           
         C         C         0.54152   0.12702   0.05161   -0.156528           
         C         C         0.45631   0.86054   0.95437   -0.160396           
         C         C         0.88231   0.20898   0.79812   -0.159191           
         C         C         0.11476   0.79711   0.20382   -0.162054           
         C         C         0.61657   0.78919   0.30092   -0.160388           
         C         C         0.38203   0.20680   0.70013   -0.158329           
         H         H         0.41593   0.36509   0.97162   0.105621  
         H         H         0.58333   0.62416   0.02852   0.107635  
         H         H         0.08721   0.63535   0.46882   0.105820  
         H         H         0.91501   0.37502   0.52377   0.107438  
         H         H         0.37751   0.66185   0.21910   0.105723  
         H         H         0.62571   0.33597   0.77106   0.106362  
         H         H         0.12433   0.34010   0.72388   0.106568  
         H         H         0.88169   0.66435   0.28156   0.106234  
         H         H         0.91361   0.86878   0.46774   0.106362  
         H         H         0.08438   0.13227   0.52719   0.106596  
         H         H         0.58461   0.12165   0.97560   0.106506  
         H         H         0.41303   0.86490   0.03024   0.107293  
         H         H         0.87677   0.16597   0.72159   0.106739  
         H         H         0.11793   0.83951   0.28238   0.106218  
         H         H         0.62135   0.83230   0.22459   0.107174  
         H         H         0.37516   0.16414   0.77703   0.106738  
         C         C         0.45296   0.31848   0.17017   -0.113660           
         C         C         0.54747   0.67020   0.82823   -0.111161           
         C         C         0.05038   0.68064   0.66934   -0.112624           
         C         C         0.95159   0.32759   0.32532   -0.111164           
         C         C         0.42458   0.69702   0.42022   -0.112671           
         C         C         0.57717   0.29701   0.57473   -0.114224           
         C         C         0.07656   0.30258   0.92258   -0.112676           
         C         C         0.92740   0.70148   0.08033   -0.112270           
         C         C         0.94999   0.82433   0.66941   -0.112477           
         C         C         0.04840   0.17840   0.32720   -0.112405           
         C         C         0.54915   0.16911   0.17516   -0.113480           
         C         C         0.44992   0.81806   0.83112   -0.111701           
         C         C         0.92486   0.20268   0.92064   -0.113143           
         C         C         0.07307   0.80322   0.07984   -0.111061           
         C         C         0.57390   0.79497   0.42364   -0.111662           
         C         C         0.42430   0.19871   0.57739   -0.112947           
         H         H         0.40465   0.29160   0.19014   0.100986  
         H         H         0.59623   0.69635   0.80834   0.102028  
         H         H         0.09770   0.70978   0.68598   0.101570  
         H         H         0.90258   0.30212   0.30487   0.101050  
         H         H         0.45112   0.64917   0.43588   0.100312  
         H         H         0.55222   0.34524   0.55306   0.101326  
         H         H         0.05206   0.35114   0.94385   0.101137  
         H         H         0.95547   0.65455   0.06375   0.101349  
         H         H         0.90223   0.79609   0.68772   0.102760  
         H         H         0.09665   0.20567   0.30900   0.100312  
         H         H         0.59817   0.19475   0.19466   0.101223  
         H         H         0.40163   0.79098   0.81217   0.100678  
         H         H         0.95074   0.15463   0.93814   0.101048  
         H         H         0.04540   0.85036   0.06307   0.100611  
         H         H         0.54712   0.84254   0.44152   0.101008  
         H         H         0.44877   0.14983   0.55967   0.101017  
         C         C         0.43569   0.49980   0.57448   -0.122360           
         C         C         0.56240   0.49553   0.43177   -0.122036           
         C         C         0.06706   0.50272   0.06714   -0.122174           
         C         C         0.93811   0.49998   0.93496   -0.119584           
         C         C         0.25047   0.68716   0.81300   -0.120637           
         C         C         0.75117   0.31530   0.18411   -0.121408           
         C         C         0.25545   0.31776   0.31646   -0.121786           
         C         C         0.75195   0.68298   0.68672   -0.122621           
         C         C         0.06208   0.00197   0.92968   -0.120755           
         C         C         0.56062   0.99274   0.57234   -0.120612           
         C         C         0.74789   0.18677   0.31866   -0.124624           
         C         C         0.24765   0.81760   0.68892   -0.121664           
         C         C         0.74714   0.81246   0.81550   -0.120338           
         C         C         0.24644   0.18986   0.17892   -0.122075           
         H         H         0.38660   0.50163   0.63199   0.107054  
         H         H         0.61159   0.49403   0.37465   0.106963  
         H         H         0.11713   0.50396   0.12031   0.107158  
         H         H         0.88803   0.49874   0.88174   0.106393  
         H         H         0.25177   0.63646   0.86316   0.106293  
         H         H         0.75237   0.36523   0.13026   0.106529  
         H         H         0.25918   0.36730   0.37199   0.107746  
         H         H         0.75416   0.63265   0.63494   0.106706  
         H         H         0.11189   0.00238   0.87491   0.106809  
         H         H         0.60973   0.99039   0.62927   0.106682  
         H         H         0.74682   0.13690   0.37273   0.108332  
         H         H         0.24633   0.86832   0.63892   0.107022  
         H         H         0.74502   0.86281   0.86735   0.106293  
         H         H         0.24289   0.14032   0.12340   0.107086  
         C         C         0.49379   0.47924   0.65519   0.065600  
         C         C         0.50416   0.51535   0.35051   0.064101  
         C         C         0.00920   0.52023   0.15273   0.065653  
         C         C         0.99598   0.48240   0.84939   0.064150  
         C         C         0.26825   0.74446   0.90208   0.064885  
         C         C         0.73137   0.25725   0.09939   0.063269  
         C         C         0.23238   0.26035   0.39944   0.064334  
         C         C         0.76848   0.74112   0.59927   0.065068  
         C         C         0.99172   0.98247   0.14932   0.064367  
         C         C         0.00418   0.02083   0.84615   0.062703  
         C         C         0.50269   0.01342   0.65414   0.064018  
         C         C         0.49178   0.97738   0.34919   0.064817  
         C         C         0.76748   0.24483   0.40345   0.063914  
         C         C         0.22988   0.76030   0.59983   0.064210  
         C         C         0.73068   0.75428   0.90295   0.063727  
         C         C         0.26902   0.24734   0.09564   0.064018  
         C         C         0.55759   0.47831   0.58150   -0.107389           
         C         C         0.44051   0.51713   0.42478   -0.107029           
         C         C         0.94433   0.51796   0.08401   -0.109704           
         C         C         0.06082   0.48451   0.91817   -0.105623           
         C         C         0.26624   0.81012   0.83721   -0.105792           
         C         C         0.73057   0.19266   0.16930   -0.105856           
         C         C         0.22861   0.19603   0.32807   -0.106814           
         C         C         0.76505   0.80627   0.66635   -0.108230           
         C         C         0.05624   0.98349   0.07850   -0.108109           
         C         C         0.93966   0.02001   0.91703   -0.106097           
         C         C         0.43898   0.01569   0.58067   -0.107719           
         C         C         0.55551   0.97552   0.42257   -0.109308           
         C         C         0.76853   0.30942   0.33345   -0.105192           
         C         C         0.23198   0.69467   0.66476   -0.106907           
         C         C         0.73366   0.68916   0.83564   -0.106365           
         C         C         0.27317   0.31162   0.16718   -0.107162           
         H         H         0.60212   0.46257   0.64463   0.114013  
         H         H         0.39603   0.53324   0.36201   0.113743  
         H         H         0.90000   0.53172   0.15041   0.114333  
         H         H         0.10505   0.47057   0.85164   0.113051  
         H         H         0.28061   0.85408   0.90562   0.114248  
         H         H         0.71521   0.14825   0.10330   0.113760  
         H         H         0.21037   0.15219   0.39252   0.113577  
         H         H         0.77777   0.85093   0.59880   0.114922  
         H         H         0.10054   0.96829   0.14307   0.114026  
         H         H         0.89541   0.03538   0.85257   0.114499  
         H         H         0.39466   0.03213   0.64407   0.114153  
         H         H         0.59982   0.95905   0.35926   0.114353  
         H         H         0.78408   0.35376   0.39953   0.112952  
         H         H         0.21778   0.65073   0.59625   0.113862  
         H         H         0.72043   0.64457   0.90314   0.113924  
         H         H         0.29166   0.35547   0.10302   0.114339  
         C         C         0.48545   0.45421   0.80677   0.071453  
         C         C         0.51250   0.53852   0.19753   0.072258  
         C         C         0.01875   0.54527   0.30392   0.070181  
         C         C         0.98658   0.45783   0.69776   0.072915  
         C         C         0.29307   0.73321   0.05248   0.072332  
         C         C         0.70728   0.26616   0.94760   0.073016  
         C         C         0.20801   0.26981   0.55116   0.071584  
         C         C         0.79368   0.73161   0.44825   0.071164  
         C         C         0.98257   0.95781   0.30100   0.072076  
         C         C         0.01378   0.04547   0.69468   0.073064  
         C         C         0.51180   0.03700   0.80665   0.072863  
         C         C         0.48316   0.95298   0.19701   0.072870  
         C         C         0.79144   0.23567   0.55527   0.072633  
         C         C         0.20505   0.77090   0.44912   0.072667  
         C         C         0.70615   0.76367   0.05459   0.073288  
         C         C         0.29255   0.23728   0.94365   0.071137  
         H         H         0.43337   0.45603   0.85268   0.068994  
         H         H         0.56452   0.53528   0.15177   0.068172  
         H         H         0.07173   0.54628   0.34455   0.068956  
         H         H         0.93395   0.45870   0.65541   0.066224  
         H         H         0.29307   0.67959   0.08886   0.065535  
         H         H         0.70966   0.31878   0.90490   0.066759  
         H         H         0.21095   0.32240   0.59419   0.067562  
         H         H         0.79463   0.67837   0.40915   0.068001  
         H         H         0.93003   0.95881   0.34453   0.068232  
         H         H         0.06675   0.04529   0.65346   0.066480  
         H         H         0.56392   0.03337   0.85119   0.065877  
         H         H         0.43110   0.95524   0.15157   0.069169  
         H         H         0.78870   0.18314   0.59840   0.067706  
         H         H         0.20511   0.82427   0.41081   0.067938  
         H         H         0.70598   0.81682   0.09448   0.065755  
         H         H         0.28781   0.18473   0.90090   0.066905  
         N         N         0.53569   0.42816   0.88021   -0.293335           
         N         N         0.46262   0.56437   0.12239   -0.294773           
         N         N         0.96851   0.56817   0.38299   -0.292590           
         N         N         0.03652   0.43365   0.61962   -0.294909           
         N         N         0.31674   0.78246   0.13573   -0.293682           
         N         N         0.68161   0.21574   0.87073   -0.293954           
         N         N         0.18155   0.21983   0.62819   -0.293252           
         N         N         0.81670   0.78207   0.36769   -0.293329           
         N         N         0.03270   0.93362   0.37798   -0.292737           
         N         N         0.96392   0.06909   0.61602   -0.294735           
         N         N         0.46255   0.06361   0.88291   -0.295562           
         N         N         0.53316   0.92717   0.12177   -0.295135           
         N         N         0.81752   0.28576   0.63256   -0.295371           
         N         N         0.18156   0.72095   0.36764   -0.292845           
         N         N         0.68276   0.71326   0.13484   -0.295151           
         N         N         0.32011   0.28631   0.86559   -0.291965           
         C         C         0.43391   -0.00160  0.43086   -0.122288           
         H         H         0.38482   0.00081   0.37399   0.107187  
         C         C         0.93380   0.00145   0.06592   -0.122521           
         H         H         0.88397   0.00104   0.12062   0.107602 

