
##########################################################################
#               Crystallographic Information Format file
#               Produced by PyCifRW module
#
#  This is a CIF file.  CIF has been adopted by the International
#  Union of Crystallography as the standard for data archiving and
#  transmission.
#
#  For information on this file format, follow the CIF links at
#  http://www.iucr.org
##########################################################################

data_image0

_cell_length_a                          25.7451
_cell_length_b                          25.8218
_cell_length_c                          7.77158
_cell_angle_alpha                       89.6407
_cell_angle_beta                        89.7388
_cell_angle_gamma                       90.2575
_symmetry_space_group_name_H-M          'P 1'
_space_group_name_Hall                  'P 1'
loop_
  _atom_site_type_symbol
  _atom_site_label
  _atom_site_fract_x
  _atom_site_fract_y
  _atom_site_fract_z
  _atom_site_charge
         C         C         0.51680   0.58482   0.62557   0.066926  
         C         C         0.48263   0.41363   0.36432   0.067070  
         C         C         0.98485   0.41614   0.12456   0.068370  
         C         C         0.02094   0.58186   0.86978   0.066999  
         C         C         0.16549   0.77280   0.87389   0.067373  
         C         C         0.83506   0.23232   0.11848   0.067273  
         C         C         0.33623   0.23073   0.38354   0.066745  
         C         C         0.66319   0.77106   0.61761   0.066489  
         C         C         0.02039   0.08334   0.12795   0.066048  
         C         C         0.98074   0.91488   0.87427   0.066018  
         C         C         0.48052   0.91603   0.63436   0.068279  
         C         C         0.51996   0.08265   0.37309   0.065226  
         C         C         0.66964   0.26788   0.37254   0.068884  
         C         C         0.32894   0.73778   0.62683   0.067249  
         C         C         0.83252   0.72810   0.87894   0.067826  
         C         C         0.16677   0.27067   0.12206   0.066824  
         H         H         0.54900   0.55772   0.60258   0.069651  
         H         H         0.45051   0.44103   0.38393   0.069044  
         H         H         0.95219   0.44301   0.10648   0.068515  
         H         H         0.05353   0.55486   0.88770   0.069461  
         H         H         0.19217   0.80581   0.85419   0.070694  
         H         H         0.80824   0.19924   0.13362   0.069079  
         H         H         0.30835   0.19874   0.36611   0.069913  
         H         H         0.69148   0.80266   0.63578   0.071275  
         H         H         0.05279   0.05628   0.10830   0.072055  
         H         H         0.94873   0.94244   0.89361   0.072490  
         H         H         0.44897   0.94424   0.61682   0.068936  
         H         H         0.55226   0.05539   0.39207   0.071622  
         H         H         0.69545   0.30178   0.35760   0.069621  
         H         H         0.30163   0.70512   0.64280   0.069580  
         H         H         0.80443   0.69629   0.86119   0.070063  
         H         H         0.19375   0.30348   0.13850   0.072090  
         N         N         0.48779   0.58124   0.76121   -0.279352           
         N         N         0.51234   0.41636   0.22995   -0.278069           
         N         N         0.01551   0.41947   0.25531   -0.280408           
         N         N         0.99090   0.57924   0.73723   -0.278237           
         N         N         0.16819   0.74330   0.00843   -0.278560           
         N         N         0.83242   0.26342   0.98779   -0.280031           
         N         N         0.33402   0.26067   0.51615   -0.279643           
         N         N         0.66499   0.74150   0.48405   -0.278635           
         N         N         0.99049   0.08029   0.26166   -0.279435           
         N         N         0.01085   0.91751   0.74089   -0.279226           
         N         N         0.51052   0.91738   0.76729   -0.278166           
         N         N         0.48982   0.07978   0.24096   -0.278112           
         N         N         0.67370   0.23643   0.50177   -0.280761           
         N         N         0.32653   0.76883   0.49598   -0.279252           
         N         N         0.82993   0.75866   0.00975   -0.277599           
         N         N         0.17011   0.23988   0.99205   -0.279243           
         C         C         0.54868   0.63307   0.37097   -0.114293           
         C         C         0.44978   0.36641   0.62084   -0.112552           
         C         C         0.95107   0.36972   0.87150   -0.114593           
         C         C         0.05280   0.62838   0.12682   -0.113798           
         C         C         0.11720   0.80361   0.61828   -0.113414           
         C         C         0.88006   0.19938   0.37752   -0.115080           
         C         C         0.38273   0.19763   0.12716   -0.113007           
         C         C         0.61654   0.80386   0.87443   -0.115636           
         C         C         0.05172   0.12994   0.86806   -0.112999           
         C         C         0.94757   0.86677   0.12990   -0.114064           
         C         C         0.44636   0.87041   0.37919   -0.113546           
         C         C         0.55293   0.12925   0.62730   -0.116022           
         C         C         0.62297   0.30000   0.11563   -0.113756           
         C         C         0.37591   0.70320   0.87984   -0.114361           
         C         C         0.87981   0.69481   0.62374   -0.113936           
         C         C         0.11959   0.30253   0.37845   -0.113002           
         H         H         0.58254   0.60796   0.36978   0.110179  
         H         H         0.41562   0.39112   0.61926   0.110451  
         H         H         0.91813   0.39601   0.87113   0.110337  
         H         H         0.08645   0.60299   0.12862   0.109958  
         H         H         0.14111   0.83852   0.61725   0.111547  
         H         H         0.85401   0.16603   0.37836   0.111051  
         H         H         0.35693   0.16410   0.12791   0.110280  
         H         H         0.64242   0.83733   0.87448   0.110967  
         H         H         0.08491   0.10402   0.86387   0.110447  
         H         H         0.91400   0.89226   0.13278   0.110663  
         H         H         0.41274   0.89586   0.38116   0.111280  
         H         H         0.58638   0.10361   0.62763   0.111106  
         H         H         0.64888   0.33344   0.11278   0.110593  
         H         H         0.34974   0.66996   0.88015   0.109937  
         H         H         0.85373   0.66149   0.62299   0.109929  
         H         H         0.14523   0.33617   0.38032   0.110672  
         C         C         0.51017   0.62566   0.49702   0.044634  
         C         C         0.48865   0.37355   0.49583   0.045113  
         C         C         0.98996   0.37562   0.99570   0.045379  
         C         C         0.01471   0.62179   0.00033   0.044848  
         C         C         0.12553   0.76533   0.74367   0.045893  
         C         C         0.87473   0.23783   0.25057   0.044964  
         C         C         0.37659   0.23618   0.25201   0.042775  
         C         C         0.62269   0.76559   0.74876   0.045150  
         C         C         0.01405   0.12365   -0.00257  0.044661  
         C         C         0.98602   0.87395   0.00336   0.044465  
         C         C         0.48546   0.87633   0.50265   0.043807  
         C         C         0.51428   0.12292   0.50258   0.046101  
         C         C         0.62942   0.26170   0.24237   0.044019  
         C         C         0.36955   0.74244   0.75631   0.045052  
         C         C         0.87367   0.73297   0.74980   0.043411  
         C         C         0.12605   0.26468   0.25169   0.043594  
         C         C         0.50136   0.70527   0.24712   0.071295  
         C         C         0.49744   0.29518   0.74993   0.072300  
         C         C         0.99565   0.29604   0.74850   0.070138  
         C         C         0.00524   0.70018   0.25137   0.072055  
         C         C         0.04682   0.75334   0.49438   0.070110  
         C         C         0.95287   0.24544   0.50321   0.070657  
         C         C         0.45579   0.24397   -0.00057  0.071027  
         C         C         0.54341   0.75736   0.00069   0.070411  
         C         C         0.00476   0.20265   0.74671   0.072021  
         C         C         0.99423   0.79359   0.25027   0.070651  
         C         C         0.49251   0.79860   0.24920   0.069817  
         C         C         0.50674   0.20176   0.75241   0.071142  
         C         C         0.54968   0.25339   0.99490   0.070523  
         C         C         0.44956   0.74854   0.00335   0.071102  
         C         C         0.95323   0.74128   0.49855   0.071404  
         C         C         0.04658   0.25513   0.50146   0.072242  
         C         C         0.54454   0.67262   0.24855   -0.139685           
         C         C         0.45403   0.32755   0.74585   -0.141095           
         C         C         0.95373   0.33023   0.74989   -0.139130           
         C         C         0.04827   0.66730   0.25000   -0.140008           
         C         C         0.07808   0.79781   0.49591   -0.139605           
         C         C         0.91884   0.20307   0.50211   -0.139058           
         C         C         0.42209   0.20134   0.00327   -0.140590           
         C         C         0.57718   0.79992   -0.00175  -0.136511           
         C         C         0.04729   0.16920   0.74473   -0.141521           
         C         C         0.95152   0.82683   0.25136   -0.140616           
         C         C         0.44978   0.83180   0.25460   -0.138525           
         C         C         0.54937   0.16837   0.75007   -0.140916           
         C         C         0.58348   0.29596   0.99364   -0.140165           
         C         C         0.41566   0.70607   0.00124   -0.140958           
         C         C         0.91935   0.69875   0.50031   -0.140976           
         C         C         0.08012   0.29786   0.50149   -0.141667           
         H         H         0.57551   0.67807   0.15476   0.110294  
         H         H         0.42298   0.32242   0.83959   0.109890  
         H         H         0.92262   0.32597   0.65707   0.109362  
         H         H         0.07875   0.67188   0.34491   0.110328  
         H         H         0.07181   0.82860   0.40256   0.108906  
         H         H         0.92284   0.17241   0.59751   0.110812  
         H         H         0.42666   0.17047   0.91015   0.109826  
         H         H         0.57283   0.83051   0.09252   0.109283  
         H         H         0.07740   0.17389   0.64743   0.110212  
         H         H         0.92091   0.82153   0.34669   0.109594  
         H         H         0.41872   0.82759   0.16160   0.108609  
         H         H         0.58027   0.17283   0.84362   0.109539  
         H         H         0.57884   0.32657   0.89850   0.110188  
         H         H         0.42034   0.67462   0.09327   0.110490  
         H         H         0.92357   0.66834   0.40529   0.110267  
         H         H         0.07542   0.32790   0.59752   0.109635  
         C         C         0.46268   0.69779   0.37443   -0.128850           
         C         C         0.53642   0.30246   0.62358   -0.131204           
         C         C         0.03442   0.30169   0.87490   -0.130028           
         C         C         0.96692   0.69330   0.12404   -0.132360           
         C         C         0.05525   0.71496   0.62118   -0.130105           
         C         C         0.94726   0.28412   0.37551   -0.131345           
         C         C         0.44958   0.28265   0.12540   -0.130756           
         C         C         0.54965   0.71893   0.87398   -0.131843           
         C         C         0.96682   0.19616   0.87672   -0.129377           
         C         C         0.03283   0.80090   0.12274   -0.129229           
         C         C         0.53177   0.80472   0.37373   -0.129460           
         C         C         0.46787   0.19523   0.62672   -0.128910           
         C         C         0.55632   0.21485   0.12257   -0.131510           
         C         C         0.44307   0.78797   0.87869   -0.130876           
         C         C         0.94712   0.77938   0.62656   -0.129530           
         C         C         0.05297   0.21724   0.37294   -0.131698           
         H         H         0.42960   0.72385   0.37892   0.111220  
         H         H         0.56992   0.27691   0.62170   0.111526  
         H         H         0.06623   0.27414   0.87987   0.110124  
         H         H         0.93390   0.71941   0.11944   0.111197  
         H         H         0.03010   0.68099   0.62627   0.110541  
         H         H         0.97441   0.31655   0.37122   0.111128  
         H         H         0.47647   0.31530   0.12804   0.110509  
         H         H         0.52268   0.68637   0.87077   0.111631  
         H         H         0.93431   0.22291   0.88299   0.110548  
         H         H         0.06582   0.77471   0.11747   0.110504  
         H         H         0.56474   0.77850   0.37488   0.109482  
         H         H         0.43516   0.22176   0.62315   0.110105  
         H         H         0.52951   0.18215   0.12864   0.111034  
         H         H         0.47002   0.82057   0.87481   0.110365  
         H         H         0.97399   0.81200   0.63102   0.111093  
         H         H         0.02620   0.18453   0.36746   0.111674  
         C         C         0.46686   0.65888   0.49749   -0.102479           
         C         C         0.53230   0.34085   0.49893   -0.101997           
         C         C         0.03189   0.34073   -0.00386  -0.100933           
         C         C         0.97145   0.65502   0.00061   -0.100761           
         C         C         0.09383   0.72070   0.74361   -0.102361           
         C         C         0.90897   0.28056   0.25138   -0.100491           
         C         C         0.41080   0.27894   0.24936   -0.100938           
         C         C         0.58847   0.72283   0.75026   -0.101705           
         C         C         0.97122   0.15743   -0.00006  -0.102415           
         C         C         0.02886   0.84017   0.00130   -0.101566           
         C         C         0.52844   0.84277   0.49831   -0.101055           
         C         C         0.47141   0.15664   0.50399   -0.101992           
         C         C         0.59551   0.21870   0.24370   -0.101058           
         C         C         0.40383   0.78511   0.75745   -0.101138           
         C         C         0.90821   0.77545   0.74979   -0.100169           
         C         C         0.09199   0.22180   0.25034   -0.101392           
         H         H         0.43740   0.65407   0.59730   0.106069  
         H         H         0.56201   0.34571   0.40012   0.105355  
         H         H         0.06155   0.34425   0.09458   0.103340  
         H         H         0.94237   0.65065   0.90056   0.103948  
         H         H         0.09955   0.69152   0.84325   0.104745  
         H         H         0.90549   0.30978   0.15067   0.103951  
         H         H         0.40679   0.30835   0.34806   0.103155  
         H         H         0.59250   0.69365   0.65085   0.104256  
         H         H         0.94241   0.15318   0.10181   0.104130  
         H         H         0.05818   0.84505   0.90127   0.102889  
         H         H         0.55826   0.84682   0.59614   0.104165  
         H         H         0.44183   0.15257   0.40547   0.104629  
         H         H         0.59999   0.18942   0.34370   0.104334  
         H         H         0.39952   0.81495   0.65931   0.103260  
         H         H         0.90419   0.80453   0.84957   0.103755  
         H         H         0.09639   0.19311   0.14949   0.104140  
         C         C         0.49664   0.75241   0.12486   0.003418  
         C         C         0.50242   0.24859   0.87437   0.004034  
         C         C         -0.00020  0.24971   0.62509   0.001692  
         C         C         -0.00018  0.74685   0.37353   0.002512  
         C         C         0.49457   0.53949   0.87469   0.193773  
         C         C         0.50634   0.45792   0.11524   0.193226  
         C         C         0.00927   0.46015   0.37179   0.193816  
         C         C         0.99713   0.53882   0.61990   0.191478  
         C         C         0.20835   0.75036   0.12663   0.193529  
         C         C         0.79212   0.25707   0.86941   0.193086  
         C         C         0.29257   0.25528   0.63223   0.192603  
         C         C         0.70665   0.74634   0.36848   0.192674  
         C         C         0.99615   0.03911   0.37786   0.193647  
         C         C         0.00580   0.95878   0.62460   0.193374  
         C         C         0.50559   0.95838   0.88308   0.193156  
         C         C         0.49565   0.03863   0.12627   0.194363  
         C         C         0.71404   0.24340   0.61952   0.194135  
         C         C         0.28617   0.76312   0.37763   0.194156  
         C         C         0.78817   0.75435   0.12483   0.193484  
         C         C         0.21159   0.24540   0.87667   0.194667  
         C         C         0.50319   0.48833   0.81885   -0.174994           
         C         C         0.49797   0.50909   0.17100   -0.174477           
         C         C         0.99839   0.51147   0.32094   -0.175202           
         C         C         0.26011   0.76106   0.07756   -0.174187           
         C         C         0.74077   0.24459   0.91895   -0.174429           
         C         C         0.24113   0.24534   0.57945   -0.173991           
         C         C         0.75849   0.75340   0.42229   -0.175501           
         C         C         0.99715   0.01029   0.67645   -0.173758           
         C         C         0.49747   0.00994   0.82916   -0.175157           
         C         C         0.50407   0.98713   0.18025   -0.175110           
         C         C         0.76533   0.25604   0.56993   -0.175057           
         C         C         0.23438   0.75253   0.42670   -0.175199           
         C         C         0.73639   0.74731   0.07084   -0.175797           
         C         C         0.26292   0.25554   0.92970   -0.176434           
         H         H         0.50408   0.48016   0.68140   0.098240  
         H         H         0.49748   0.51706   0.30856   0.097485  
         H         H         0.99606   0.52094   0.18437   0.098386  
         H         H         0.01049   0.47796   0.80711   0.098611  
         H         H         0.27024   0.76289   0.94137   0.097886  
         H         H         0.73097   0.24161   0.05520   0.099208  
         H         H         0.23246   0.24290   0.44262   0.099468  
         H         H         0.76731   0.75430   0.55937   0.099301  
         H         H         0.00638   0.97859   0.18923   0.098703  
         H         H         0.99520   0.01916   0.81329   0.098194  
         H         H         0.49640   0.01889   0.69201   0.097944  
         H         H         0.50552   0.97812   0.31727   0.098267  
         H         H         0.77518   0.25922   0.43374   0.099322  
         H         H         0.22434   0.75038   0.56295   0.097314  
         H         H         0.72794   0.74627   0.93353   0.099252  
         H         H         0.27131   0.25819   0.06670   0.099933  
         C         C         0.49152   0.54909   0.05275   -0.154889           
         C         C         0.50963   0.44830   0.93726   -0.153447           
         C         C         0.01473   0.44898   0.54846   -0.151765           
         C         C         0.99169   0.55000   0.44314   -0.153041           
         C         C         0.19623   0.74557   0.30301   -0.153068           
         C         C         0.80359   0.26348   0.69312   -0.152473           
         C         C         0.30267   0.26099   0.80925   -0.151806           
         C         C         0.69638   0.74271   0.19085   -0.153802           
         C         C         0.99177   0.04965   0.55506   -0.154302           
         C         C         0.01018   0.94825   0.44740   -0.154247           
         C         C         0.50953   0.94774   0.06052   -0.153018           
         C         C         0.49189   0.04926   0.94881   -0.153818           
         C         C         0.70253   0.23710   0.79588   -0.154671           
         C         C         0.29830   0.76799   0.20123   -0.153659           
         C         C         0.79848   0.75803   0.30235   -0.154428           
         C         C         0.20142   0.23978   0.69980   -0.154571           
         H         H         0.48616   0.58871   0.09588   0.113764  
         H         H         0.51524   0.40871   0.89431   0.112863  
         H         H         0.02214   0.40917   0.58719   0.112109  
         H         H         0.98437   0.58976   0.40373   0.112282  
         H         H         0.15606   0.73842   0.34022   0.111829  
         H         H         0.84339   0.27212   0.65475   0.111523  
         H         H         0.34245   0.26776   0.85019   0.112560  
         H         H         0.65635   0.73818   0.14916   0.111987  
         H         H         0.98584   0.08948   0.59501   0.111950  
         H         H         0.01550   0.90837   0.40708   0.112364  
         H         H         0.51453   0.90786   0.10264   0.110763  
         H         H         0.48675   0.08916   0.90734   0.111957  
         H         H         0.66269   0.22853   0.83378   0.112860  
         H         H         0.33850   0.77486   0.16372   0.112219  
         H         H         0.83858   0.76235   0.34371   0.112532  
         H         H         0.16158   0.23314   0.65941   0.113598  
         C         C         0.00807   0.48748   0.67059   -0.174881           
         C         C         0.00490   0.98762   0.32598   -0.174856 

