
##########################################################################
#               Crystallographic Information Format file
#               Produced by PyCifRW module
#
#  This is a CIF file.  CIF has been adopted by the International
#  Union of Crystallography as the standard for data archiving and
#  transmission.
#
#  For information on this file format, follow the CIF links at
#  http://www.iucr.org
##########################################################################

data_image0

_cell_length_a                          40.3064
_cell_length_b                          40.2973
_cell_length_c                          7.96841
_cell_angle_alpha                       109.212
_cell_angle_beta                        110.929
_cell_angle_gamma                       90.0635
_symmetry_space_group_name_H-M          'P 1'
_space_group_name_Hall                  'P 1'
loop_
  _atom_site_type_symbol
  _atom_site_label
  _atom_site_fract_x
  _atom_site_fract_y
  _atom_site_fract_z
  _atom_site_charge
         C         C         0.48141   0.66158   0.21470   0.167568  
         C         C         0.53688   0.63452   0.24395   -0.179001           
         C         C         0.51795   0.60524   0.24332   -0.043161           
         C         C         0.52879   0.57132   0.25335   0.332295  
         C         C         0.51879   0.34195   0.26783   0.170130  
         C         C         0.46466   0.37061   0.25900   -0.183101           
         C         C         0.48380   0.39987   0.26080   -0.040413           
         C         C         0.47352   0.43430   0.25826   0.330050  
         C         C         0.34057   0.48459   0.26304   0.175171  
         C         C         0.36791   0.53819   0.25251   -0.186619           
         C         C         0.39760   0.51999   0.25318   -0.034144           
         C         C         0.43195   0.53028   0.24950   0.337320  
         C         C         0.66161   0.51938   0.24462   0.174586  
         C         C         0.63241   0.46543   0.24177   -0.186540           
         C         C         0.60385   0.48484   0.25035   -0.034601           
         C         C         0.56968   0.47488   0.25560   0.336073  
         C         C         0.51753   0.66261   0.23175   0.176303  
         C         C         0.46259   0.63301   0.21692   -0.186919           
         C         C         0.48217   0.60470   0.23366   -0.034490           
         C         C         0.47233   0.57069   0.24238   0.336746  
         C         C         0.48328   0.34180   0.26116   0.178013  
         C         C         0.53779   0.37058   0.26706   -0.185702           
         C         C         0.51902   0.39979   0.26241   -0.034920           
         C         C         0.52922   0.43418   0.25916   0.337765  
         C         C         0.66092   0.48386   0.23744   0.172274  
         C         C         0.63335   0.53864   0.25058   -0.181287           
         C         C         0.60411   0.52011   0.25263   -0.040471           
         C         C         0.56991   0.53074   0.25775   0.327706  
         C         C         0.33971   0.51929   0.25761   0.171471  
         C         C         0.36961   0.46631   0.26328   -0.182401           
         C         C         0.39828   0.48524   0.25877   -0.040407           
         C         C         0.43272   0.47508   0.25716   0.328453  
         O         O         0.52882   0.69491   0.23136   -0.336250           
         O         O         0.47168   0.30950   0.26028   -0.336622           
         O         O         0.30734   0.53014   0.26054   -0.334078           
         O         O         0.69226   0.47173   0.22489   -0.335048           
         O         O         0.46941   0.69291   0.19773   -0.338486           
         O         O         0.53018   0.30997   0.27587   -0.334385           
         O         O         0.69386   0.53024   0.24178   -0.338051           
         O         O         0.30878   0.47323   0.26859   -0.338285           
         H         H         0.56441   0.63487   0.25295   0.151553  
         H         H         0.43760   0.37083   0.25735   0.151910  
         H         H         0.36720   0.56484   0.24813   0.152489  
         H         H         0.63185   0.43825   0.23806   0.153549  
         H         H         0.43491   0.63231   0.20576   0.152245  
         H         H         0.56492   0.37060   0.26983   0.152330  
         H         H         0.63344   0.56564   0.25135   0.152889  
         H         H         0.37055   0.43973   0.26885   0.152784  
         N         N         0.56067   0.56231   0.25729   -0.379555           
         N         N         0.44197   0.44355   0.25871   -0.381764           
         N         N         0.44071   0.56140   0.24223   -0.378538           
         N         N         0.56064   0.44334   0.25705   -0.375971           
         B         B         0.49895   0.71354   0.20938   0.599412  
         B         B         0.50091   0.28998   0.27093   0.589179  
         B         B         0.28843   0.50158   0.26827   0.587406  
         B         B         0.71268   0.50069   0.23007   0.584815  
         C         C         0.98419   0.46805   0.27138   0.037195  
         C         C         0.03936   0.55892   0.26873   -0.127401           
         C         C         0.07485   0.55932   0.28223   -0.069269           
         C         C         0.09142   0.52892   0.27654   -0.081180           
         C         C         0.12209   0.46449   0.19888   0.428361  
         H         H         0.02681   0.58272   0.26739   0.112325  
         H         H         0.09004   0.58307   0.29617   0.128916  
         O         O         0.13134   0.43597   0.12663   -0.415229           
         C         C         0.80832   0.53244   0.29970   -0.164394           
         C         C         0.77252   0.53207   0.27926   -0.039617           
         H         H         0.82426   0.55749   0.34154   0.134126  
         H         H         0.76160   0.55713   0.30592   0.109823  
         C         C         0.02014   0.52911   0.26109   0.037416  
         C         C         0.96648   0.44030   0.29020   -0.132158           
         C         C         0.93237   0.44160   0.29795   -0.066471           
         C         C         0.91426   0.47056   0.28213   -0.081933           
         C         C         0.87499   0.52829   0.23065   0.419267  
         H         H         0.97970   0.41727   0.30304   0.114398  
         H         H         0.91952   0.42032   0.31858   0.127199  
         O         O         0.85843   0.55218   0.19364   -0.399091           
         C         C         0.20037   0.47223   0.29923   -0.156607           
         C         C         0.23528   0.47349   0.30434   -0.048800           
         H         H         0.18995   0.45170   0.33420   0.131137  
         H         H         0.25124   0.45325   0.34045   0.109201  
         C         C         0.53099   0.98295   0.22642   0.035871  
         C         C         0.44242   0.03898   0.27524   -0.132424           
         C         C         0.44246   0.07401   0.28135   -0.077729           
         C         C         0.47085   0.09097   0.26636   -0.090898           
         C         C         0.52568   0.12463   0.20295   0.424674  
         H         H         0.41992   0.02683   0.28906   0.112457  
         H         H         0.42077   0.08886   0.30085   0.131992  
         O         O         0.54685   0.13648   0.15047   -0.430034           
         C         C         0.47209   0.79863   0.10128   -0.153225           
         C         C         0.47032   0.76368   0.09500   -0.049555           
         H         H         0.44958   0.80763   0.01080   0.136875  
         H         H         0.44591   0.74541   -0.00062  0.107469  
         C         C         0.47085   0.01986   0.25841   0.036988  
         C         C         0.55987   0.96424   0.21414   -0.130393           
         C         C         0.56051   0.92975   0.21626   -0.080797           
         C         C         0.53217   0.91275   0.23101   -0.087031           
         C         C         0.47481   0.87708   0.26829   0.429998  
         H         H         0.58230   0.97641   0.19991   0.110641  
         H         H         0.58294   0.91541   0.20541   0.130074  
         O         O         0.45181   0.86306   0.30096   -0.434121           
         C         C         0.53174   0.20196   0.31833   -0.160799           
         C         C         0.53226   0.23674   0.32222   -0.039544           
         H         H         0.55680   0.19140   0.36316   0.132925  
         H         H         0.55787   0.25251   0.36655   0.108677  
         C         C         0.01954   0.46693   0.25896   0.036756  
         C         C         0.96400   0.55709   0.23575   -0.131062           
         C         C         0.92887   0.55655   0.22783   -0.076056           
         C         C         0.91231   0.52780   0.24182   -0.089994           
         C         C         0.87908   0.47205   0.30070   0.420693  
         H         H         0.97596   0.57990   0.22344   0.112298  
         H         H         0.91362   0.57817   0.20843   0.136721  
         O         O         0.86742   0.44970   0.34750   -0.422764           
         C         C         0.19353   0.52458   0.21046   -0.169670           
         C         C         0.22891   0.52626   0.22339   -0.028669           
         H         H         0.17763   0.54431   0.16984   0.127754  
         H         H         0.23941   0.54719   0.19039   0.112372  
         C         C         0.98341   0.52872   0.25252   0.036192  
         C         C         0.03705   0.43660   0.24322   -0.130282           
         C         C         0.07048   0.43590   0.22650   -0.065743           
         C         C         0.08837   0.46623   0.23396   -0.083209           
         C         C         0.12950   0.53050   0.30169   0.420635  
         H         H         0.02435   0.41263   0.24159   0.112622  
         H         H         0.08318   0.41186   0.20914   0.133245  
         O         O         0.14832   0.55923   0.36462   -0.410138           
         C         C         0.80169   0.46869   0.21382   -0.167273           
         C         C         0.76649   0.46904   0.20363   -0.034297           
         H         H         0.81223   0.44367   0.18500   0.135533  
         H         H         0.75067   0.44412   0.16982   0.112102  
         C         C         0.47163   0.98367   0.25892   0.033994  
         C         C         0.55727   0.03693   0.20260   -0.131168           
         C         C         0.55597   0.07135   0.19958   -0.069463           
         C         C         0.52729   0.08923   0.21930   -0.076502           
         C         C         0.47041   0.12839   0.27881   0.421658  
         H         H         0.58000   0.02382   0.18554   0.115130  
         H         H         0.57683   0.08461   0.17829   0.125870  
         O         O         0.44665   0.14489   0.31424   -0.409139           
         C         C         0.53300   0.81090   0.33680   -0.157957           
         C         C         0.53133   0.77557   0.32430   -0.039868           
         H         H         0.55709   0.82925   0.43309   0.134841  
         H         H         0.55463   0.76686   0.41169   0.108936  
         C         C         0.52994   0.01894   0.22288   0.033960  
         C         C         0.44391   0.96544   0.27498   -0.132270           
         C         C         0.44497   0.93087   0.27607   -0.064171           
         C         C         0.47405   0.91324   0.26134   -0.074258           
         C         C         0.53420   0.87650   0.23599   0.426498  
         H         H         0.42087   0.97837   0.28813   0.113356  
         H         H         0.42341   0.91722   0.29053   0.126011  
         O         O         0.56111   0.86197   0.23676   -0.426655           
         C         C         0.46691   0.19542   0.20203   -0.159090           
         C         C         0.46801   0.23081   0.21624   -0.042106           
         H         H         0.44132   0.17949   0.15119   0.133429  
         H         H         0.44285   0.24167   0.17559   0.107899  
         C         C         0.96655   0.49850   0.26154   -0.004005           
         C         C         0.07230   0.49770   0.25771   0.027062  
         N         N         0.14312   0.49754   0.25008   -0.206994           
         C         C         0.17912   0.49784   0.25112   0.188773  
         C         C         0.75085   0.50052   0.23253   -0.242828           
         C         C         0.03705   0.49795   0.26045   -0.007361           
         C         C         0.93105   0.49889   0.26138   0.030589  
         N         N         0.85950   0.50032   0.26539   -0.202389           
         C         C         0.82324   0.50054   0.26228   0.194050  
         C         C         0.25051   0.50073   0.26961   -0.246117           
         C         C         0.50168   0.96603   0.24272   -0.004082           
         C         C         0.49946   0.07233   0.24306   0.035715  
         N         N         0.49847   0.14424   0.24758   -0.202509           
         C         C         0.49891   0.18067   0.25491   0.197378  
         C         C         0.49986   0.75148   0.20652   -0.241275           
         C         C         0.50014   0.03674   0.24192   -0.003927           
         C         C         0.50255   0.93061   0.24434   0.032778  
         N         N         0.50391   0.85920   0.23913   -0.201963           
         C         C         0.50321   0.82250   0.22648   0.190582  
         C         C         0.50049   0.25207   0.27271   -0.240871           
         Cu        Cu        0.50130   0.50295   0.25741   0.672074  
         N         N         0.50087   0.55130   0.25277   -0.431718           
         N         N         0.50131   0.45423   0.25738   -0.429798           
         N         N         0.45240   0.50273   0.25346   -0.429721           
         N         N         0.54992   0.50296   0.25896   -0.431287           
         C         C         0.48157   0.65895   0.71418   0.170197  
         C         C         0.53697   0.63168   0.74147   -0.182034           
         C         C         0.51802   0.60252   0.74187   -0.036627           
         C         C         0.52847   0.56844   0.75109   0.329737  
         C         C         0.51461   0.33931   0.76047   0.171295  
         C         C         0.46174   0.36942   0.76553   -0.184915           
         C         C         0.48099   0.39822   0.76368   -0.039676           
         C         C         0.47125   0.43284   0.76229   0.332312  
         C         C         0.33896   0.48656   0.76677   0.174431  
         C         C         0.36806   0.53913   0.75621   -0.186426           
         C         C         0.39692   0.51975   0.75561   -0.034946           
         C         C         0.43131   0.52906   0.75069   0.334189  
         C         C         0.66040   0.51497   0.74222   0.175712  
         C         C         0.63200   0.46250   0.75773   -0.186374           
         C         C         0.60282   0.48147   0.75659   -0.036726           
         C         C         0.56832   0.47192   0.76003   0.335620  
         C         C         0.51760   0.65976   0.72927   0.176494  
         C         C         0.46274   0.63056   0.71719   -0.186118           
         C         C         0.48235   0.60230   0.73340   -0.038881           
         C         C         0.47224   0.56856   0.74252   0.335898  
         C         C         0.47982   0.34020   0.76445   0.175703  
         C         C         0.53391   0.36765   0.75938   -0.188697           
         C         C         0.51592   0.39744   0.76123   -0.037614           
         C         C         0.52684   0.43182   0.76097   0.338787  
         C         C         0.66057   0.48054   0.75150   0.169183  
         C         C         0.63186   0.53406   0.74257   -0.181740           
         C         C         0.60294   0.51620   0.75078   -0.038016           
         C         C         0.56884   0.52725   0.75453   0.327877  
         C         C         0.33932   0.52131   0.76197   0.170295  
         C         C         0.36730   0.46719   0.76628   -0.182427           
         C         C         0.39664   0.48503   0.76136   -0.040140           
         C         C         0.43091   0.47403   0.75970   0.329849  
         O         O         0.52873   0.69182   0.72583   -0.337121           
         O         O         0.46816   0.30821   0.76678   -0.334584           
         O         O         0.30750   0.53347   0.76629   -0.333709           
         O         O         0.69271   0.46889   0.75049   -0.336613           
         O         O         0.46952   0.69018   0.69691   -0.338996           
         O         O         0.52513   0.30675   0.75964   -0.336388           
         O         O         0.69226   0.52518   0.73375   -0.334175           
         O         O         0.30680   0.47646   0.77295   -0.340004           
         H         H         0.56441   0.63201   0.74889   0.152789  
         H         H         0.43504   0.37028   0.76878   0.151921  
         H         H         0.36844   0.56584   0.75279   0.153443  
         H         H         0.63206   0.43594   0.76338   0.152255  
         H         H         0.43511   0.62988   0.70653   0.152651  
         H         H         0.56067   0.36700   0.75674   0.151352  
         H         H         0.63152   0.56047   0.73486   0.152077  
         H         H         0.36719   0.44059   0.77160   0.152341  
         N         N         0.56001   0.55886   0.75220   -0.382069           
         N         N         0.43978   0.44248   0.76255   -0.381835           
         N         N         0.44053   0.55994   0.74295   -0.375643           
         N         N         0.55859   0.44054   0.76109   -0.377067           
         B         B         0.49891   0.71051   0.70561   0.600080  
         B         B         0.49628   0.28761   0.76376   0.591988  
         B         B         0.28740   0.50548   0.77132   0.588385  
         B         B         0.71231   0.49667   0.74041   0.589962  
         C         C         0.98432   0.46893   0.77372   0.031289  
         C         C         0.03705   0.56117   0.76965   -0.128777           
         C         C         0.07259   0.56235   0.78337   -0.068252           
         C         C         0.08991   0.53240   0.77775   -0.083585           
         C         C         0.12159   0.46866   0.69885   0.428185  
         H         H         0.02397   0.58467   0.76784   0.111336  
         H         H         0.08730   0.58647   0.79821   0.127572  
         O         O         0.13120   0.44036   0.62664   -0.415978           
         C         C         0.80017   0.52058   0.69276   -0.158208           
         C         C         0.76571   0.52121   0.69291   -0.040812           
         H         H         0.81055   0.53998   0.65138   0.120791  
         H         H         0.75041   0.54155   0.65308   0.105062  
         C         C         0.01851   0.53100   0.76293   0.037984  
         C         C         0.96702   0.44006   0.78536   -0.126445           
         C         C         0.93190   0.43915   0.77870   -0.072233           
         C         C         0.91323   0.46779   0.76559   -0.070471           
         C         C         0.87674   0.52874   0.78106   0.421719  
         H         H         0.98091   0.41738   0.79770   0.109440  
         H         H         0.91843   0.41605   0.78152   0.129452  
         O         O         0.86520   0.55731   0.82238   -0.406159           
         C         C         0.19892   0.47651   0.79480   -0.158640           
         C         C         0.23379   0.47773   0.80011   -0.049763           
         H         H         0.18835   0.45563   0.82675   0.132562  
         H         H         0.24955   0.45716   0.83325   0.109023  
         C         C         0.52964   0.97963   0.72830   0.036207  
         C         C         0.44120   0.03598   0.77691   -0.133010           
         C         C         0.44073   0.07039   0.77311   -0.080501           
         C         C         0.46906   0.08698   0.75582   -0.086978           
         C         C         0.52736   0.12300   0.73023   0.433015  
         H         H         0.41887   0.02423   0.79388   0.110669  
         H         H         0.41825   0.08475   0.78245   0.127710  
         O         O         0.55322   0.13618   0.71496   -0.413859           
         C         C         0.47135   0.79579   0.60363   -0.150789           
         C         C         0.46979   0.76069   0.59464   -0.050694           
         H         H         0.44873   0.80493   0.51478   0.132414  
         H         H         0.44541   0.74239   0.49909   0.107568  
         C         C         0.46961   0.01670   0.76114   0.036219  
         C         C         0.55831   0.96082   0.71305   -0.134100           
         C         C         0.55917   0.92651   0.71707   -0.080333           
         C         C         0.53110   0.90982   0.73535   -0.085368           
         C         C         0.47387   0.87409   0.77289   0.432978  
         H         H         0.58035   0.97275   0.69475   0.115278  
         H         H         0.58150   0.91209   0.70496   0.129815  
         O         O         0.45106   0.86010   0.80699   -0.435991           
         C         C         0.52536   0.19624   0.73803   -0.194353           
         C         C         0.52469   0.23110   0.74439   -0.027501           
         H         H         0.54774   0.18315   0.71983   0.131408  
         H         H         0.54683   0.24378   0.72998   0.100028  
         C         C         0.01973   0.46898   0.76311   0.037348  
         C         C         0.96159   0.55769   0.74225   -0.131692           
         C         C         0.92718   0.55683   0.74534   -0.082328           
         C         C         0.91158   0.52743   0.75838   -0.079381           
         C         C         0.87520   0.46485   0.74344   0.436402  
         H         H         0.97261   0.58077   0.72785   0.115275  
         H         H         0.91219   0.57913   0.73983   0.129345  
         O         O         0.85971   0.43633   0.71830   -0.411309           
         C         C         0.19276   0.52987   0.71505   -0.172144           
         C         C         0.22815   0.53144   0.72780   -0.030038           
         H         H         0.17710   0.55005   0.67842   0.130506  
         H         H         0.23896   0.55280   0.69898   0.113000  
         C         C         0.98188   0.52977   0.75669   0.034957  
         C         C         0.03805   0.43922   0.74979   -0.130053           
         C         C         0.07129   0.43915   0.73142   -0.066415           
         C         C         0.08816   0.46972   0.73567   -0.085588           
         C         C         0.12813   0.53477   0.80499   0.426604  
         H         H         0.02617   0.41523   0.75188   0.112287  
         H         H         0.08456   0.41546   0.71536   0.133290  
         O         O         0.14675   0.56374   0.87286   -0.409680           
         C         C         0.80639   0.47035   0.79768   -0.181098           
         C         C         0.77117   0.47027   0.78790   -0.030656           
         H         H         0.82171   0.45052   0.84047   0.126163  
         H         H         0.76004   0.45002   0.82261   0.100958  
         C         C         0.47043   0.98060   0.76306   0.033076  
         C         C         0.55627   0.03361   0.70753   -0.130083           
         C         C         0.55556   0.06836   0.71000   -0.069925           
         C         C         0.52677   0.08622   0.72805   -0.074336           
         C         C         0.46620   0.12212   0.73516   0.425147  
         H         H         0.57906   0.02051   0.69126   0.111439  
         H         H         0.57715   0.08204   0.69616   0.126050  
         O         O         0.43703   0.13326   0.70701   -0.407562           
         C         C         0.53235   0.80798   0.83875   -0.158822           
         C         C         0.53091   0.77253   0.82325   -0.039962           
         H         H         0.55626   0.82639   0.93689   0.137442  
         H         H         0.55421   0.76382   0.91054   0.109138  
         C         C         0.52869   0.01556   0.72542   0.032990  
         C         C         0.44273   0.96233   0.77906   -0.129354           
         C         C         0.44384   0.92773   0.77974   -0.071338           
         C         C         0.47295   0.91018   0.76530   -0.070807           
         C         C         0.53355   0.87396   0.74468   0.428706  
         H         H         0.41965   0.97521   0.79222   0.114253  
         H         H         0.42240   0.91395   0.79435   0.126403  
         O         O         0.56097   0.86005   0.75218   -0.425521           
         C         C         0.46905   0.19733   0.78040   -0.170847           
         C         C         0.46866   0.23206   0.78398   -0.035175           
         H         H         0.44704   0.18504   0.79529   0.127949  
         H         H         0.44619   0.24560   0.80303   0.103033  
         C         C         0.96594   0.49899   0.76528   -0.003797           
         C         C         0.07144   0.50081   0.75898   0.026547  
         N         N         0.14201   0.50202   0.74931   -0.212536           
         C         C         0.17799   0.50259   0.75049   0.186649  
         C         C         0.75020   0.49602   0.73940   -0.245751           
         C         C         0.03628   0.50031   0.76266   -0.006705           
         C         C         0.93038   0.49809   0.76371   0.029803  
         N         N         0.85795   0.49622   0.75608   -0.202330           
         C         C         0.82143   0.49557   0.74921   0.202716  
         C         C         0.24933   0.50534   0.76969   -0.244076           
         C         C         0.50044   0.96290   0.74621   -0.004501           
         C         C         0.49833   0.06878   0.74341   0.034483  
         N         N         0.49731   0.14138   0.74460   -0.193249           
         C         C         0.49722   0.17818   0.75363   0.214237  
         C         C         0.49955   0.74843   0.70398   -0.244090           
         C         C         0.49889   0.03334   0.74369   -0.005605           
         C         C         0.50141   0.92755   0.74814   0.034384  
         N         N         0.50300   0.85634   0.74397   -0.204876           
         C         C         0.50244   0.81963   0.72981   0.191813  
         C         C         0.49626   0.24986   0.76483   -0.252779           
         Cu        Cu        0.49997   0.50063   0.75770   0.672285  
         N         N         0.50045   0.54880   0.75229   -0.430343           
         N         N         0.49935   0.45237   0.76122   -0.431710           
         N         N         0.45113   0.50115   0.75465   -0.430182           
         N         N         0.54866   0.50004   0.75920   -0.429658 

