
##########################################################################
#               Crystallographic Information Format file
#               Produced by PyCifRW module
#
#  This is a CIF file.  CIF has been adopted by the International
#  Union of Crystallography as the standard for data archiving and
#  transmission.
#
#  For information on this file format, follow the CIF links at
#  http://www.iucr.org
##########################################################################

data_image0

_cell_length_a                          25.6103
_cell_length_b                          26.3755
_cell_length_c                          8.1202
_cell_angle_alpha                       90.2845
_cell_angle_beta                        90.0076
_cell_angle_gamma                       89.8193
_symmetry_space_group_name_H-M          'P 1'
_space_group_name_Hall                  'P 1'
loop_
  _atom_site_type_symbol
  _atom_site_label
  _atom_site_fract_x
  _atom_site_fract_y
  _atom_site_fract_z
  _atom_site_charge
         C         C         0.24895   0.25055   0.25251   0.013335  
         C         C         0.75279   0.74900   0.74549   0.022792  
         C         C         0.28119   0.28408   0.37036   0.057102  
         C         C         0.71921   0.71222   0.64030   0.063546  
         C         C         0.21774   0.21801   0.37472   0.057651  
         C         C         0.78048   0.78490   0.62495   0.056638  
         C         C         0.71872   0.77602   0.87433   0.012143  
         C         C         0.28278   0.21897   0.13270   0.063808  
         C         C         0.79016   0.71879   0.85622   0.017481  
         C         C         0.21399   0.28088   0.13380   0.054244  
         C         C         0.31887   0.26029   0.46989   -0.114542           
         C         C         0.67847   0.73221   0.54487   -0.125082           
         C         C         0.18104   0.24246   0.47696   -0.108921           
         C         C         0.81098   0.76369   0.49858   -0.133276           
         C         C         0.73171   0.75923   0.03386   0.033961  
         C         C         0.25808   0.18217   0.03404   -0.117536           
         C         C         0.77377   0.72191   0.02159   0.042959  
         C         C         0.23782   0.31647   0.02982   -0.119823           
         H         H         0.32798   0.22042   0.44982   0.103746  
         H         H         0.66956   0.77251   0.54987   0.096953  
         H         H         0.17222   0.28239   0.45847   0.108450  
         H         H         0.81578   0.72277   0.49240   0.094687  
         H         H         0.21702   0.17376   0.05405   0.106178  
         H         H         0.27893   0.32560   0.04555   0.103691  
         C         C         0.34229   0.28548   0.60080   -0.168970           
         C         C         0.65172   0.70259   0.43124   -0.163316           
         C         C         0.15821   0.21773   0.60894   -0.166143           
         C         C         0.83320   0.79343   0.37651   -0.176636           
         C         C         0.70822   0.77960   0.17347   -0.195223           
         C         C         0.28376   0.15863   0.90379   -0.163150           
         C         C         0.79764   0.69347   0.14520   -0.207290           
         C         C         0.21090   0.33809   0.89933   -0.164309           
         H         H         0.36902   0.26495   0.68049   0.104588  
         H         H         0.62319   0.72067   0.35130   0.112138  
         H         H         0.13229   0.23874   0.69048   0.107098  
         H         H         0.85455   0.77573   0.27561   0.111502  
         H         H         0.72012   0.76805   0.29567   0.121652  
         H         H         0.26228   0.13231   0.82614   0.103809  
         H         H         0.78341   0.69547   0.27098   0.118190  
         H         H         0.23147   0.36313   0.81564   0.102493  
         C         C         0.32817   0.33588   0.63912   0.193645  
         C         C         0.66496   0.65115   0.40813   0.199618  
         C         C         0.17191   0.16720   0.64465   0.194189  
         C         C         0.82436   0.84613   0.37406   0.202403  
         C         C         0.67015   0.81757   0.15596   0.205027  
         C         C         0.33550   0.17199   0.86411   0.190937  
         C         C         0.84189   0.66415   0.10645   0.197690  
         C         C         0.15869   0.32460   0.86670   0.199966  
         C         C         0.29079   0.36000   0.53892   -0.179173           
         C         C         0.70403   0.63040   0.50927   -0.168784           
         C         C         0.20816   0.14242   0.54195   -0.181509           
         C         C         0.79423   0.86777   0.50071   -0.168458           
         C         C         0.65548   0.83315   -0.00347  -0.187947           
         C         C         0.36068   0.20808   0.96433   -0.178153           
         C         C         0.85959   0.66294   0.94201   -0.184232           
         C         C         0.13454   0.28948   0.97149   -0.165333           
         H         H         0.27872   0.39858   0.56915   0.110413  
         H         H         0.71403   0.59052   0.49391   0.107965  
         H         H         0.21940   0.10362   0.57095   0.105833  
         H         H         0.78720   0.90845   0.49998   0.116574  
         H         H         0.62490   0.86148   0.98189   0.098634  
         H         H         0.40043   0.21914   0.93370   0.108792  
         H         H         0.89291   0.63955   0.90792   0.090715  
         H         H         0.09438   0.27859   0.94602   0.111066  
         C         C         0.26806   0.33463   0.40575   -0.132779           
         C         C         0.73048   0.66036   0.62394   -0.145894           
         C         C         0.23049   0.16740   0.40848   -0.137485           
         C         C         0.77356   0.83771   0.62563   -0.128272           
         C         C         0.67963   0.81253   0.85651   -0.122550           
         C         C         0.33494   0.23074   0.09732   -0.133825           
         C         C         0.83353   0.68903   0.81713   -0.118228           
         C         C         0.16171   0.26812   0.10303   -0.137858           
         H         H         0.23837   0.35367   0.33250   0.109681  
         H         H         0.76127   0.64332   0.69736   0.102993  
         H         H         0.25957   0.14788   0.33387   0.105002  
         H         H         0.75082   0.85572   0.72256   0.107353  
         H         H         0.66805   0.82625   0.73594   0.099332  
         H         H         0.35507   0.25937   0.17006   0.105940  
         H         H         0.84830   0.68582   0.69197   0.099342  
         H         H         0.14240   0.24012   0.17947   0.104273  
         N         N         0.34663   0.36167   0.77875   -0.307415           
         N         N         0.64532   0.62125   0.27963   -0.301106           
         N         N         0.15397   0.14137   0.78367   -0.309297           
         N         N         0.84242   0.87599   0.24367   -0.289321           
         N         N         0.64721   0.83728   0.29999   -0.277460           
         N         N         0.36203   0.15431   0.72375   -0.308369           
         N         N         0.87208   0.64018   0.22880   -0.295410           
         N         N         0.13168   0.34087   0.72632   -0.299807           
         C         C         0.39437   0.35470   0.82709   0.067184  
         C         C         0.60048   0.63184   0.21487   0.077767  
         C         C         0.10664   0.14860   0.83499   0.067792  
         C         C         0.89065   0.87061   0.20000   0.076734  
         C         C         0.64283   0.88581   0.31664   0.069701  
         C         C         0.35311   0.10924   0.66629   0.069159  
         C         C         0.85001   0.61299   0.34085   0.080631  
         C         C         0.14119   0.38557   0.66883   0.077937  
         H         H         0.42205   0.33171   0.75459   0.068472  
         H         H         0.57389   0.66042   0.26811   0.067959  
         H         H         0.07867   0.17199   0.76580   0.076446  
         H         H         0.91806   0.84781   0.27379   0.066093  
         H         H         0.65928   0.91171   0.22450   0.075721  
         H         H         0.32744   0.08234   0.73012   0.069453  
         H         H         0.80809   0.60408   0.33547   0.078503  
         H         H         0.16619   0.41255   0.73596   0.064480  
         C         C         0.41524   0.37900   0.97429   0.041054  
         C         C         0.58193   0.60640   0.06692   0.049218  
         C         C         0.08689   0.12307   0.98054   0.041885  
         C         C         0.91260   0.89449   0.05442   0.044527  
         C         C         0.61659   0.90949   0.45714   0.044092  
         C         C         0.37924   0.08983   0.51933   0.042175  
         C         C         0.87978   0.59122   0.47828   0.048050  
         C         C         0.11898   0.40470   0.51677   0.041408  
         C         C         0.46952   0.37952   0.00320   -0.114763           
         C         C         0.53089   0.61587   0.01086   -0.126564           
         C         C         0.03272   0.11919   0.00675   -0.113967           
         C         C         0.96715   0.89713   0.03833   -0.125274           
         C         C         0.61285   0.96264   0.46626   -0.126044           
         C         C         0.38039   0.03720   0.48932   -0.114804           
         C         C         0.86354   0.54561   0.55138   -0.122282           
         C         C         0.12589   0.45633   0.48039   -0.125093           
         H         H         0.49549   0.35989   0.91768   0.107389  
         H         H         0.50661   0.64315   0.07697   0.106375  
         H         H         0.00602   0.13772   0.92148   0.110859  
         H         H         0.99177   0.88096   0.13412   0.106982  
         H         H         0.63055   0.98561   0.37035   0.109922  
         H         H         0.35872   0.01210   0.57034   0.109762  
         H         H         0.82791   0.52736   0.50867   0.110677  
         H         H         0.14948   0.47955   0.56287   0.105836  
         C         C         0.49040   0.40546   0.13751   -0.129266           
         C         C         0.51111   0.59019   0.87465   -0.119313           
         C         C         0.01310   0.09087   0.13675   -0.124647           
         C         C         0.98986   0.92134   0.90485   -0.123682           
         C         C         0.58609   0.98639   0.59460   -0.123815           
         C         C         0.40977   0.01683   0.36075   -0.127761           
         C         C         0.89298   0.52302   0.67582   -0.133615           
         C         C         0.10151   0.47833   0.34570   -0.124859           
         H         H         0.53239   0.40500   0.15739   0.111907  
         H         H         0.47113   0.59653   0.83508   0.116963  
         H         H         0.97109   0.08840   0.15447   0.114296  
         H         H         0.03199   0.92459   0.89678   0.115333  
         H         H         0.58188   0.02734   0.59687   0.117072  
         H         H         0.41008   0.97605   0.34005   0.115515  
         H         H         0.88027   0.48743   0.72960   0.112966  
         H         H         0.10553   0.51865   0.32381   0.117090  
         C         C         0.45799   0.43235   0.24837   0.095831  
         C         C         0.54243   0.55511   0.78818   0.085529  
         C         C         0.04680   0.06548   0.24666   0.094084  
         C         C         0.95867   0.94339   0.78104   0.082211  
         C         C         0.56260   0.95784   0.72072   0.083240  
         C         C         0.43885   0.04835   0.25554   0.095278  
         C         C         0.93878   0.54608   0.73570   0.089124  
         C         C         0.06914   0.44929   0.24122   0.091081  
         C         C         0.40353   0.43111   0.21892   -0.140697           
         C         C         0.59450   0.54749   0.84000   -0.138942           
         C         C         0.10122   0.07035   0.22077   -0.143022           
         C         C         0.90379   0.93867   0.79439   -0.139865           
         C         C         0.56661   0.90435   0.71117   -0.140900           
         C         C         0.43629   0.10129   0.28342   -0.140491           
         C         C         0.95352   0.59303   0.66769   -0.137451           
         C         C         0.06518   0.39664   0.27206   -0.137401           
         H         H         0.37755   0.45327   0.29699   0.106785  
         H         H         0.61884   0.52040   0.77339   0.106067  
         H         H         0.12837   0.04970   0.29876   0.106709  
         H         H         0.87874   0.95483   0.69986   0.106476  
         H         H         0.54738   0.88103   0.80317   0.109143  
         H         H         0.45972   0.12647   0.20793   0.106546  
         H         H         0.98864   0.61162   0.71274   0.116207  
         H         H         0.04116   0.37322   0.19180   0.107762  
         C         C         0.38258   0.40473   0.08665   -0.108328           
         C         C         0.61388   0.57245   0.97776   -0.107030           
         C         C         0.12081   0.09853   0.09122   -0.111537           
         C         C         0.88111   0.91484   0.92868   -0.109256           
         C         C         0.59294   0.88076   0.58234   -0.112580           
         C         C         0.40695   0.12163   0.41140   -0.111409           
         C         C         0.92491   0.61491   0.54055   -0.108161           
         C         C         0.08950   0.37468   0.40710   -0.114949           
         H         H         0.34060   0.40455   0.06546   0.110672  
         H         H         0.65358   0.56616   0.02086   0.109729  
         H         H         0.16269   0.10095   0.06992   0.108650  
         H         H         0.83893   0.91146   0.93929   0.114517  
         H         H         0.59489   0.83960   0.57395   0.112856  
         H         H         0.40606   0.16238   0.43268   0.110363  
         H         H         0.93657   0.65106   0.48821   0.107236  
         H         H         0.08515   0.33442   0.43234   0.110749  
         C         C         0.47968   0.46193   0.38616   -0.029804           
         C         C         0.52100   0.52528   0.65060   0.008322  
         C         C         0.02579   0.03432   0.38075   -0.027514           
         C         C         0.98256   0.97206   0.64519   0.005412  
         C         C         0.53366   0.98262   0.85610   0.001963  
         C         C         0.47108   0.02680   0.12245   -0.027019           
         C         C         0.97086   0.52170   0.86489   -0.023079           
         C         C         0.03785   0.47385   0.11155   -0.000875           
         C         C         0.45159   0.47213   0.53219   0.091745  
         C         C         0.54978   0.51407   0.50752   -0.157512           
         C         C         0.05138   0.02735   0.53269   0.090498  
         C         C         0.95741   0.97863   0.49250   -0.154803           
         C         C         0.52759   0.95929   0.01067   -0.154571           
         C         C         0.47843   0.05107   0.97011   0.090009  
         C         C         0.98879   0.54754   0.00555   0.087724  
         C         C         0.01929   0.44790   0.97159   -0.152015           
         C         C         0.47059   0.50404   0.66027   0.089790  
         C         C         0.52969   0.48412   0.37957   -0.135198           
         C         C         0.03145   0.99652   0.66164   0.093299  
         C         C         0.97813   0.00808   0.36566   -0.136307           
         C         C         0.49779   0.98032   0.13855   -0.137714           
         C         C         0.50926   0.03059   0.83969   0.092943  
         C         C         0.02187   0.52522   0.12595   0.097209  
         C         C         0.98714   0.47082   0.85309   -0.138670           
         N         N         0.43499   0.50629   0.78969   -0.361931           
         H         H         0.55283   0.47937   0.26817   0.112904  
         N         N         0.06528   0.99783   0.79603   -0.359314           
         H         H         0.95736   0.00928   0.24892   0.114092  
         H         H         0.49668   0.96089   0.25644   0.114884  
         N         N         0.50821   0.06315   0.70518   -0.358881           
         N         N         0.03146   0.55989   0.25228   -0.361790           
         H         H         0.97581   0.44914   0.74463   0.115227  
         C         C         0.39651   0.47641   0.74437   0.166817  
         C         C         0.10332   0.02835   0.75270   0.162747  
         C         C         0.47800   0.10122   0.75028   0.167764  
         C         C         0.00489   0.60081   0.21211   0.170659  
         H         H         0.36220   0.46776   0.81665   0.093241  
         H         H         0.13641   0.03885   0.82827   0.095185  
         H         H         0.46792   0.13371   0.67558   0.091241  
         H         H         0.00256   0.63538   0.28435   0.094018  
         N         N         0.40403   0.45483   0.59069   -0.287713           
         H         H         0.58831   0.53077   0.49286   0.116780  
         N         N         0.09729   0.04735   0.59586   -0.288741           
         H         H         0.92082   0.95895   0.46988   0.111645  
         H         H         0.54812   0.92390   0.03422   0.106744  
         N         N         0.45861   0.09602   0.90766   -0.285804           
         N         N         0.97920   0.59621   0.06421   -0.284840           
         H         H         0.03133   0.40878   0.95133   0.110909  
         H         H         0.38134   0.42738   0.53985   0.276952  
         H         H         0.11936   0.07515   0.54535   0.277859  
         H         H         0.43147   0.11889   0.96128   0.280101  
         H         H         0.94973   0.61963   0.02923   0.275608 

